@<TRIPOS>MOLECULE
MOL
   73    74     1     0     0
SMALL
No Charge or Current Charge


@<TRIPOS>ATOM
      1 Pd1         -0.0000     0.0000    -0.0000 Pd         1 MOL       0.283175
      2 O1          -0.3390     1.8390     0.7770 4o         1 MOL      -0.883545
      3 O2           0.5510     3.1860    -0.7910 o          1 MOL      -0.883545
      4 N1           1.6700     0.6320    -1.0920 1n         1 MOL      -0.050271
      5 H1           1.5310     1.5410    -1.0830 hn         1 MOL       0.256269
      6 C1           2.9800     0.4490    -0.4060 c3         1 MOL       0.036659
      7 H2           3.6830     0.8480    -0.9950 hx         1 MOL       0.021500
      8 C2           3.3500    -0.9990    -0.1770 c3         1 MOL      -0.076386
      9 H3           3.3700    -1.4770    -1.0440 hc         1 MOL       0.051855
     10 H4           2.6680    -1.4300     0.3970 hc         1 MOL       0.051855
     11 C3           4.7220    -1.0980     0.4950 c3         1 MOL      -0.014200
     12 H5           4.9350    -2.0470     0.6710 hc         1 MOL      -0.012958
     13 H6           5.4140    -0.7360    -0.1130 hc         1 MOL      -0.012958
     14 C4           4.7480    -0.3260     1.7990 c3         1 MOL       0.226715
     15 H7           4.1240    -0.7450     2.4430 hc         1 MOL      -0.058645
     16 H8           5.6590    -0.3620     2.1850 hc         1 MOL      -0.058645
     17 C5           4.3510     1.1170     1.5770 c3         1 MOL      -0.014200
     18 H9           5.0310     1.5600     1.0100 hc         1 MOL      -0.012958
     19 H10          4.3250     1.5870     2.4480 hc         1 MOL      -0.012958
     20 C6           2.9890     1.2260     0.9070 c3         1 MOL      -0.076386
     21 H11          2.7820     2.1770     0.7310 hc         1 MOL       0.051855
     22 H12          2.2930     0.8640     1.5110 hc         1 MOL       0.051855
     23 C7           1.6280     0.1610    -2.5220 c3         1 MOL       0.493979
     24 H13          1.6220    -0.8390    -2.5220 hx         1 MOL      -0.035459
     25 C8           2.8180     0.6320    -3.3420 c3         1 MOL      -0.434554
     26 H14          3.6310     0.1870    -3.0230 hc         1 MOL       0.104821
     27 H15          2.9170     1.6020    -3.2470 hc         1 MOL       0.104821
     28 H16          2.6730     0.4090    -4.2860 hc         1 MOL       0.104821
     29 C9           0.3420     0.6430    -3.1460 c3         1 MOL      -0.434554
     30 H17         -0.4200     0.2780    -2.6500 hc         1 MOL       0.104821
     31 H18          0.2990     0.3420    -4.0780 hc         1 MOL       0.104821
     32 H19          0.3110     1.6220    -3.1180 hc         1 MOL       0.104821
     33 C10         -0.1260     2.9800     0.2190 c          1 MOL       1.112167
     34 C11         -0.8110     4.1320     0.9120 c3         1 MOL      -0.170439
     35 H20         -0.6760     4.9520     0.3940 hc         1 MOL       0.039145
     36 H21         -0.4310     4.2460     1.8090 hc         1 MOL       0.039145
     37 H22         -1.7700     3.9450     0.9850 hc         1 MOL       0.039145
     38 O3           0.3390    -1.8390    -0.7770 2o         1 MOL      -0.883545
     39 O4          -0.5510    -3.1870     0.7910 o          1 MOL      -0.883545
     40 N2          -1.6700    -0.6320     1.0920 3n         1 MOL      -0.050271
     41 H23         -1.5310    -1.5410     1.0830 hn         1 MOL       0.256269
     42 C12         -2.9800    -0.4490     0.4060 c3         1 MOL       0.036659
     43 H24         -3.6830    -0.8480     0.9950 hx         1 MOL       0.021500
     44 C13         -3.3500     0.9990     0.1780 c3         1 MOL      -0.076386
     45 H25         -3.3700     1.4770     1.0440 hc         1 MOL       0.051855
     46 H26         -2.6680     1.4300    -0.3970 hc         1 MOL       0.051855
     47 C14         -4.7220     1.0980    -0.4950 c3         1 MOL      -0.014200
     48 H27         -4.9350     2.0480    -0.6710 hc         1 MOL      -0.012958
     49 H28         -5.4140     0.7360     0.1130 hc         1 MOL      -0.012958
     50 C15         -4.7480     0.3260    -1.7990 c3         1 MOL       0.226715
     51 H29         -4.1240     0.7460    -2.4430 hc         1 MOL      -0.058645
     52 H30         -5.6590     0.3620    -2.1850 hc         1 MOL      -0.058645
     53 C16         -4.3510    -1.1170    -1.5770 c3         1 MOL      -0.014200
     54 H31         -5.0310    -1.5600    -1.0100 hc         1 MOL      -0.012958
     55 H32         -4.3250    -1.5860    -2.4480 hc         1 MOL      -0.012958
     56 C17         -2.9890    -1.2260    -0.9070 c3         1 MOL      -0.076386
     57 H33         -2.7820    -2.1770    -0.7310 hc         1 MOL       0.051855
     58 H34         -2.2930    -0.8640    -1.5110 hc         1 MOL       0.051855
     59 C18         -1.6280    -0.1610     2.5220 c3         1 MOL       0.493979
     60 H35         -1.6220     0.8390     2.5220 hx         1 MOL      -0.035459
     61 C19         -2.8180    -0.6320     3.3420 c3         1 MOL      -0.434554
     62 H36         -3.6310    -0.1870     3.0230 hc         1 MOL       0.104821
     63 H37         -2.9170    -1.6020     3.2470 hc         1 MOL       0.104821
     64 H38         -2.6730    -0.4080     4.2860 hc         1 MOL       0.104821
     65 C20         -0.3420    -0.6430     3.1460 c3         1 MOL      -0.434554
     66 H39          0.4200    -0.2780     2.6500 hc         1 MOL       0.104821
     67 H40         -0.2990    -0.3420     4.0780 hc         1 MOL       0.104821
     68 H41         -0.3110    -1.6220     3.1180 hc         1 MOL       0.104821
     69 C21          0.1260    -2.9800    -0.2190 c          1 MOL       1.112167
     70 C22          0.8110    -4.1320    -0.9120 c3         1 MOL      -0.170439
     71 H42          0.6760    -4.9520    -0.3940 hc         1 MOL       0.039145
     72 H43          0.4310    -4.2460    -1.8090 hc         1 MOL       0.039145
     73 H44          1.7700    -3.9450    -0.9850 hc         1 MOL       0.039145
@<TRIPOS>BOND
     1     1     2 1   
     2     1     4 1   
     3     1    38 1   
     4     1    40 1   
     5     2    33 1   
     6     3    33 2   
     7     4     5 1   
     8     4     6 1   
     9     4    23 1   
    10     6     7 1   
    11     6     8 1   
    12     6    20 1   
    13     8     9 1   
    14     8    10 1   
    15     8    11 1   
    16    11    12 1   
    17    11    13 1   
    18    11    14 1   
    19    14    15 1   
    20    14    16 1   
    21    14    17 1   
    22    17    18 1   
    23    17    19 1   
    24    17    20 1   
    25    20    21 1   
    26    20    22 1   
    27    23    24 1   
    28    23    25 1   
    29    23    29 1   
    30    25    26 1   
    31    25    27 1   
    32    25    28 1   
    33    29    30 1   
    34    29    31 1   
    35    29    32 1   
    36    33    34 1   
    37    34    35 1   
    38    34    36 1   
    39    34    37 1   
    40    38    69 1   
    41    39    69 2   
    42    40    41 1   
    43    40    42 1   
    44    40    59 1   
    45    42    43 1   
    46    42    44 1   
    47    42    56 1   
    48    44    45 1   
    49    44    46 1   
    50    44    47 1   
    51    47    48 1   
    52    47    49 1   
    53    47    50 1   
    54    50    51 1   
    55    50    52 1   
    56    50    53 1   
    57    53    54 1   
    58    53    55 1   
    59    53    56 1   
    60    56    57 1   
    61    56    58 1   
    62    59    60 1   
    63    59    61 1   
    64    59    65 1   
    65    61    62 1   
    66    61    63 1   
    67    61    64 1   
    68    65    66 1   
    69    65    67 1   
    70    65    68 1   
    71    69    70 1   
    72    70    71 1   
    73    70    72 1   
    74    70    73 1   
@<TRIPOS>SUBSTRUCTURE
     1 MOL         1 TEMP              0 ****  ****    0 ROOT
