@<TRIPOS>MOLECULE
MOL
   55    59     1     0     0
SMALL
No Charge or Current Charge


@<TRIPOS>ATOM
      1 Pd1          0.0430    -0.0650     1.1850 Pd         1 MOL       0.578726
      2 Cl1          1.8000    -0.0300     2.7650 1c         1 MOL      -0.562651
      3 Cl2         -1.5870     0.0910     2.8860 2c         1 MOL      -0.562651
      4 P1          -1.5040    -0.1260    -0.4530 3p         1 MOL      -0.235088
      5 P2           1.5480    -0.0790    -0.4700 4p         1 MOL      -0.235088
      6 C1          -0.6280    -0.6250    -1.9940 c3         1 MOL       0.004049
      7 H1          -0.4330    -1.5960    -1.9780 hc         1 MOL       0.042372
      8 H2          -1.1880    -0.4270    -2.7860 hc         1 MOL       0.042372
      9 C2           0.6720     0.1660    -2.0410 c3         1 MOL       0.004049
     10 H3           0.4730     1.1280    -2.1680 hc         1 MOL       0.042372
     11 H4           1.2280    -0.1420    -2.7990 hc         1 MOL       0.042372
     12 C3          -2.9660    -1.1930    -0.3180 ca         1 MOL       0.165356
     13 C4          -4.0350    -0.8020     0.4850 ca         1 MOL      -0.105686
     14 H5          -3.9850    -0.0040     0.9990 ha         1 MOL       0.152477
     15 C5          -5.1760    -1.5810     0.5380 ca         1 MOL      -0.253406
     16 H6          -5.8990    -1.3330     1.1020 ha         1 MOL       0.186459
     17 C6          -5.2680    -2.7500    -0.2490 ca         1 MOL      -0.067766
     18 H7          -6.0640    -3.2670    -0.2350 ha         1 MOL       0.152514
     19 C7          -4.2200    -3.1340    -1.0480 ca         1 MOL      -0.253406
     20 H8          -4.2690    -3.9390    -1.5490 ha         1 MOL       0.186459
     21 C8          -3.0670    -2.3550    -1.1050 ca         1 MOL      -0.105686
     22 H9          -2.3530    -2.6080    -1.6760 ha         1 MOL       0.152477
     23 C9          -2.1820     1.5320    -0.7550 ca         1 MOL       0.165356
     24 C10         -1.8780     2.5990     0.0850 ca         1 MOL      -0.105686
     25 H10         -1.2870     2.4770     0.8200 ha         1 MOL       0.152477
     26 C11         -2.4360     3.8620    -0.1680 ca         1 MOL      -0.253406
     27 H11         -2.2380     4.5870     0.4130 ha         1 MOL       0.186459
     28 C12         -3.2570     4.0640    -1.2370 ca         1 MOL      -0.067766
     29 H12         -3.6300     4.9250    -1.3900 ha         1 MOL       0.152514
     30 C13         -3.5610     3.0020    -2.0970 ca         1 MOL      -0.253406
     31 H13         -4.1260     3.1420    -2.8470 ha         1 MOL       0.186459
     32 C14         -3.0290     1.7490    -1.8580 ca         1 MOL      -0.105686
     33 H14         -3.2430     1.0220    -2.4300 ha         1 MOL       0.152477
     34 C15          2.4000    -1.6640    -0.6640 ca         1 MOL       0.165356
     35 C16          3.2470    -1.9240    -1.7440 ca         1 MOL      -0.105686
     36 H15          3.4340    -1.2340    -2.3690 ha         1 MOL       0.152477
     37 C17          3.8120    -3.1730    -1.9190 ca         1 MOL      -0.253406
     38 H16          4.3850    -3.3320    -2.6590 ha         1 MOL       0.186459
     39 C18          3.5900    -4.1770    -1.0060 ca         1 MOL      -0.067766
     40 H17          3.9800    -5.0320    -1.1370 ha         1 MOL       0.152514
     41 C19          2.7720    -3.9470     0.0620 ca         1 MOL      -0.253406
     42 H18          2.6230    -4.6410     0.6920 ha         1 MOL       0.186459
     43 C20          2.1620    -2.7240     0.2400 ca         1 MOL      -0.105686
     44 H19          1.5910    -2.5860     0.9850 ha         1 MOL       0.152477
     45 C21          2.8030     1.2370    -0.4320 ca         1 MOL       0.165356
     46 C22          2.3400     2.5630    -0.4780 ca         1 MOL      -0.105686
     47 H20          1.4070     2.7340    -0.5260 ha         1 MOL       0.152477
     48 C23          3.2380     3.6150    -0.4390 ca         1 MOL      -0.253406
     49 H21          2.9170     4.5060    -0.5150 ha         1 MOL       0.186459
     50 C24          4.5930     3.3610    -0.3050 ca         1 MOL      -0.067766
     51 H22          5.2080     4.0840    -0.2540 ha         1 MOL       0.152514
     52 C25          5.0350     2.0660    -0.2530 ca         1 MOL      -0.253406
     53 H23          5.9670     1.9070    -0.1690 ha         1 MOL       0.186459
     54 C26          4.1640     0.9870    -0.3010 ca         1 MOL      -0.105686
     55 H24          4.4930     0.0980    -0.2390 ha         1 MOL       0.152477
@<TRIPOS>BOND
     1     4     6 1   
     2     4    12 1   
     3     4    23 1   
     4     5     9 1   
     5     5    34 1   
     6     5    45 1   
     7     6     7 1   
     8     6     8 1   
     9     6     9 1   
    10     9    10 1   
    11     9    11 1   
    12    12    13 ar  
    13    12    21 ar  
    14    13    14 1   
    15    13    15 ar  
    16    15    16 1   
    17    15    17 ar  
    18    17    18 1   
    19    17    19 ar  
    20    19    20 1   
    21    19    21 ar  
    22    21    22 1   
    23    23    24 ar  
    24    23    32 ar  
    25    24    25 1   
    26    24    26 ar  
    27    26    27 1   
    28    26    28 ar  
    29    28    29 1   
    30    28    30 ar  
    31    30    31 1   
    32    30    32 ar  
    33    32    33 1   
    34    34    35 ar  
    35    34    43 ar  
    36    35    36 1   
    37    35    37 ar  
    38    37    38 1   
    39    37    39 ar  
    40    39    40 1   
    41    39    41 ar  
    42    41    42 1   
    43    41    43 ar  
    44    43    44 1   
    45    45    46 ar  
    46    45    54 ar  
    47    46    47 1   
    48    46    48 ar  
    49    48    49 1   
    50    48    50 ar  
    51    50    51 1   
    52    50    52 ar  
    53    52    53 1   
    54    52    54 ar  
    55    54    55 1   
    56     2     1 1   
    57     3     1 1   
    58     4     1 1   
    59     5     1 1   
@<TRIPOS>SUBSTRUCTURE
     1 MOL         1 TEMP              0 ****  ****    0 ROOT
