@<TRIPOS>MOLECULE
MOL
   77    80     1     0     0
SMALL
No Charge or Current Charge


@<TRIPOS>ATOM
      1 Pd1         -1.2110    -0.4670    -0.0000 Pd         1 MOL      -0.109859
      2 Cl1         -2.0840     1.6360    -0.0000 1c         1 MOL      -0.546626
      3 Cl2         -0.4250    -2.6130    -0.0000 3c         1 MOL      -0.546626
      4 N1           1.2570     0.8070     1.0710 na         1 MOL      -0.111250
      5 N2          -3.1570    -1.2240    -0.0000 4n         1 MOL       0.078468
      6 N3          -3.4890    -2.5030    -0.0000 na         1 MOL      -0.208156
      7 H1          -2.9280    -3.1550    -0.0000 hn         1 MOL       0.343180
      8 C1           0.5640     0.3710     0.0000 2e         1 MOL       0.683857
      9 C2           2.3590     1.5280     0.6590 cc         1 MOL      -0.304537
     10 H2           2.9860     1.9380     1.2090 h4         1 MOL       0.275703
     11 C3           1.0180     0.4490     2.4530 ca         1 MOL       0.049572
     12 C4           0.3710     1.3580     3.2800 ca         1 MOL       0.033918
     13 C5           0.2010     0.9650     4.6100 ca         1 MOL      -0.324306
     14 H3          -0.2420     1.5360     5.1950 ha         1 MOL       0.195062
     15 C6           0.6630    -0.2180     5.0700 ca         1 MOL      -0.109733
     16 H4           0.5270    -0.4530     5.9590 ha         1 MOL       0.167464
     17 C7           1.3290    -1.0740     4.2350 ca         1 MOL      -0.324306
     18 H5           1.6530    -1.8780     4.5720 ha         1 MOL       0.195062
     19 C8           1.5270    -0.7700     2.9040 ca         1 MOL       0.033918
     20 C9          -0.0570     2.7270     2.8210 c3         1 MOL       0.400063
     21 H6          -0.0690     2.7230     1.8410 hc         1 MOL      -0.045744
     22 C10         -1.4400     3.1140     3.2990 c3         1 MOL      -0.339229
     23 H7          -2.0790     2.4710     2.9860 hc         1 MOL       0.075673
     24 H8          -1.6640     3.9830     2.9580 hc         1 MOL       0.075673
     25 H9          -1.4520     3.1350     4.2580 hc         1 MOL       0.075673
     26 C11          0.9760     3.7600     3.2730 c3         1 MOL      -0.339229
     27 H10          1.0400     3.7490     4.2310 hc         1 MOL       0.075673
     28 H11          0.7050     4.6320     2.9790 hc         1 MOL       0.075673
     29 H12          1.8300     3.5460     2.8920 hc         1 MOL       0.075673
     30 C12          2.3240    -1.6980     2.0120 c3         1 MOL       0.400063
     31 H13          2.0350    -1.5420     1.0890 hc         1 MOL      -0.045744
     32 C13          3.8100    -1.3790     2.0920 c3         1 MOL      -0.339229
     33 H14          3.9540    -0.4630     1.8460 hc         1 MOL       0.075673
     34 H15          4.2940    -1.9510     1.4910 hc         1 MOL       0.075673
     35 H16          4.1210    -1.5210     2.9890 hc         1 MOL       0.075673
     36 C14          2.0850    -3.1760     2.3280 c3         1 MOL      -0.339229
     37 H17          2.5050    -3.3960     3.1620 hc         1 MOL       0.075673
     38 H18          2.4590    -3.7160     1.6280 hc         1 MOL       0.075673
     39 H19          1.1420    -3.3400     2.3920 hc         1 MOL       0.075673
     40 C15         -4.2800    -0.5760    -0.0000 cc         1 MOL       0.088912
     41 H20         -4.3520     0.3510    -0.0000 h4         1 MOL       0.172325
     42 C16         -4.8400    -2.6450    -0.0000 cd         1 MOL      -0.048041
     43 H21         -5.3180    -3.4420    -0.0000 h4         1 MOL       0.201453
     44 C17         -5.3370    -1.4230    -0.0000 cc         1 MOL      -0.398496
     45 H22         -6.2360    -1.1890    -0.0000 ha         1 MOL       0.216881
     46 N4           1.2570     0.8070    -1.0710 na         1 MOL      -0.111250
     47 C18          2.3590     1.5280    -0.6590 cd         1 MOL      -0.304537
     48 H23          2.9860     1.9380    -1.2090 h4         1 MOL       0.275703
     49 C19          1.0180     0.4490    -2.4530 ca         1 MOL       0.049572
     50 C20          0.3710     1.3580    -3.2800 ca         1 MOL       0.033918
     51 C21          0.2010     0.9650    -4.6100 ca         1 MOL      -0.324306
     52 H24         -0.2420     1.5360    -5.1950 ha         1 MOL       0.195062
     53 C22          0.6630    -0.2180    -5.0700 ca         1 MOL      -0.109733
     54 H25          0.5270    -0.4530    -5.9590 ha         1 MOL       0.167464
     55 C23          1.3290    -1.0740    -4.2350 ca         1 MOL      -0.324306
     56 H26          1.6530    -1.8780    -4.5720 ha         1 MOL       0.195062
     57 C24          1.5270    -0.7700    -2.9040 ca         1 MOL       0.033918
     58 C25         -0.0570     2.7270    -2.8210 c3         1 MOL       0.400063
     59 H27         -0.0690     2.7230    -1.8410 hc         1 MOL      -0.045744
     60 C26         -1.4400     3.1140    -3.2990 c3         1 MOL      -0.339229
     61 H28         -2.0790     2.4710    -2.9860 hc         1 MOL       0.075673
     62 H29         -1.6640     3.9830    -2.9580 hc         1 MOL       0.075673
     63 H30         -1.4520     3.1350    -4.2580 hc         1 MOL       0.075673
     64 C27          0.9760     3.7600    -3.2730 c3         1 MOL      -0.339229
     65 H31          1.0400     3.7490    -4.2310 hc         1 MOL       0.075673
     66 H32          0.7050     4.6320    -2.9790 hc         1 MOL       0.075673
     67 H33          1.8300     3.5460    -2.8920 hc         1 MOL       0.075673
     68 C28          2.3240    -1.6980    -2.0120 c3         1 MOL       0.400063
     69 H34          2.0350    -1.5420    -1.0890 hc         1 MOL      -0.045744
     70 C29          3.8100    -1.3790    -2.0920 c3         1 MOL      -0.339229
     71 H35          3.9540    -0.4630    -1.8460 hc         1 MOL       0.075673
     72 H36          4.2940    -1.9510    -1.4910 hc         1 MOL       0.075673
     73 H37          4.1210    -1.5210    -2.9890 hc         1 MOL       0.075673
     74 C30          2.0850    -3.1760    -2.3280 c3         1 MOL      -0.339229
     75 H38          2.5050    -3.3960    -3.1620 hc         1 MOL       0.075673
     76 H39          2.4590    -3.7160    -1.6280 hc         1 MOL       0.075673
     77 H40          1.1420    -3.3400    -2.3920 hc         1 MOL       0.075673
@<TRIPOS>BOND
     1     1     2 1   
     2     1     3 1   
     3     1     5 1   
     4     1     8 1   
     5     4     8 1   
     6     4     9 1   
     7     4    11 1   
     8     5     6 1   
     9     5    40 2   
    10     6     7 1   
    11     6    42 1   
    12     8    46 1   
    13     9    10 1   
    14     9    47 2   
    15    11    12 ar  
    16    11    19 ar  
    17    12    13 ar  
    18    12    20 1   
    19    13    14 1   
    20    13    15 ar  
    21    15    16 1   
    22    15    17 ar  
    23    17    18 1   
    24    17    19 ar  
    25    19    30 1   
    26    20    21 1   
    27    20    22 1   
    28    20    26 1   
    29    22    23 1   
    30    22    24 1   
    31    22    25 1   
    32    26    27 1   
    33    26    28 1   
    34    26    29 1   
    35    30    31 1   
    36    30    32 1   
    37    30    36 1   
    38    32    33 1   
    39    32    34 1   
    40    32    35 1   
    41    36    37 1   
    42    36    38 1   
    43    36    39 1   
    44    40    41 1   
    45    40    44 1   
    46    42    43 1   
    47    42    44 2   
    48    44    45 1   
    49    46    47 1   
    50    46    49 1   
    51    47    48 1   
    52    49    50 ar  
    53    49    57 ar  
    54    50    51 ar  
    55    50    58 1   
    56    51    52 1   
    57    51    53 ar  
    58    53    54 1   
    59    53    55 ar  
    60    55    56 1   
    61    55    57 ar  
    62    57    68 1   
    63    58    59 1   
    64    58    60 1   
    65    58    64 1   
    66    60    61 1   
    67    60    62 1   
    68    60    63 1   
    69    64    65 1   
    70    64    66 1   
    71    64    67 1   
    72    68    69 1   
    73    68    70 1   
    74    68    74 1   
    75    70    71 1   
    76    70    72 1   
    77    70    73 1   
    78    74    75 1   
    79    74    76 1   
    80    74    77 1   
@<TRIPOS>SUBSTRUCTURE
     1 MOL         1 TEMP              0 ****  ****    0 ROOT
