@<TRIPOS>MOLECULE
MOL
   77    76     1     0     0
SMALL
No Charge or Current Charge


@<TRIPOS>ATOM
      1 Pd1         -0.0000     0.0000    -0.0000 Pd         1 MOL       1.015588
      2 O1           2.0020    -0.2510     0.1220 2o         1 MOL      -0.808475
      3 O2           2.7170     1.5610    -0.9830 o          1 MOL      -0.808475
      4 N1          -0.1590    -2.0790    -0.0280 3n         1 MOL      -0.052420
      5 H1          -0.9600    -2.1230     0.2610 hn         1 MOL       0.190994
      6 C1           2.9190     0.5210    -0.3590 c          1 MOL       0.722619
      7 C2           4.3520     0.0380    -0.0630 c3         1 MOL       0.609723
      8 C3           4.4990    -0.1790     1.4440 c3         1 MOL      -0.478188
      9 H2           5.4070    -0.4930     1.6420 hc         1 MOL       0.104499
     10 H3           3.8500    -0.8500     1.7430 hc         1 MOL       0.104499
     11 H4           4.3360     0.6650     1.9140 hc         1 MOL       0.104499
     12 C4           5.3630     1.0760    -0.5470 c3         1 MOL      -0.478188
     13 H5           6.2700     0.7680    -0.3400 hc         1 MOL       0.104499
     14 H6           5.1960     1.9290    -0.0950 hc         1 MOL       0.104499
     15 H7           5.2720     1.1950    -1.5150 hc         1 MOL       0.104499
     16 C5           4.5870    -1.2840    -0.8060 c3         1 MOL      -0.478188
     17 H8           5.5070    -1.5850    -0.6560 hc         1 MOL       0.104499
     18 H9           4.4390    -1.1500    -1.7660 hc         1 MOL       0.104499
     19 H10          3.9630    -1.9630    -0.4710 hc         1 MOL       0.104499
     20 C6           0.7350    -2.7670     0.9580 c3         1 MOL       0.273238
     21 H11          1.6830    -2.6580     0.6570 hx         1 MOL      -0.002219
     22 C7           0.4270    -4.2560     1.0680 c3         1 MOL      -0.326353
     23 H12          0.6250    -4.6950     0.2150 hc         1 MOL       0.074640
     24 H13         -0.5210    -4.3780     1.2870 hc         1 MOL       0.074640
     25 H14          0.9780    -4.6520     1.7760 hc         1 MOL       0.074640
     26 C8           0.5780    -2.1030     2.3160 c3         1 MOL      -0.326353
     27 H15          0.8450    -1.1630     2.2540 hc         1 MOL       0.074640
     28 H16          1.1440    -2.5620     2.9710 hc         1 MOL       0.074640
     29 H17         -0.3590    -2.1580     2.5990 hc         1 MOL       0.074640
     30 C9          -0.1360    -2.6610    -1.4100 c3         1 MOL       0.273238
     31 H18         -0.1380    -3.6580    -1.3230 hx         1 MOL      -0.002219
     32 C10          1.1180    -2.2620    -2.1630 c3         1 MOL      -0.326353
     33 H19          1.9070    -2.4890    -1.6280 hc         1 MOL       0.074640
     34 H20          1.1040    -1.2960    -2.3310 hc         1 MOL       0.074640
     35 H21          1.1530    -2.7410    -3.0170 hc         1 MOL       0.074640
     36 C11         -1.3820    -2.2580    -2.1710 c3         1 MOL      -0.326353
     37 H22         -2.1760    -2.5200    -1.6600 hc         1 MOL       0.074640
     38 H23         -1.3920    -2.7070    -3.0420 hc         1 MOL       0.074640
     39 H24         -1.3840    -1.2880    -2.3040 hc         1 MOL       0.074640
     40 O3          -2.0020     0.2510    -0.1220 4o         1 MOL      -0.808475
     41 O4          -2.7170    -1.5610     0.9830 o          1 MOL      -0.808475
     42 N2           0.1590     2.0790     0.0280 1n         1 MOL      -0.052420
     43 H25          0.9600     2.1230    -0.2610 hn         1 MOL       0.190994
     44 C12         -2.9190    -0.5210     0.3590 c          1 MOL       0.722619
     45 C13         -4.3520    -0.0380     0.0630 c3         1 MOL       0.609723
     46 C14         -4.4990     0.1790    -1.4440 c3         1 MOL      -0.478188
     47 H26         -5.4070     0.4930    -1.6420 hc         1 MOL       0.104499
     48 H27         -3.8500     0.8500    -1.7430 hc         1 MOL       0.104499
     49 H28         -4.3360    -0.6650    -1.9140 hc         1 MOL       0.104499
     50 C15         -5.3630    -1.0760     0.5470 c3         1 MOL      -0.478188
     51 H29         -6.2700    -0.7680     0.3400 hc         1 MOL       0.104499
     52 H30         -5.1960    -1.9290     0.0950 hc         1 MOL       0.104499
     53 H31         -5.2720    -1.1950     1.5150 hc         1 MOL       0.104499
     54 C16         -4.5870     1.2840     0.8060 c3         1 MOL      -0.478188
     55 H32         -5.5070     1.5850     0.6550 hc         1 MOL       0.104499
     56 H33         -4.4390     1.1500     1.7660 hc         1 MOL       0.104499
     57 H34         -3.9630     1.9630     0.4710 hc         1 MOL       0.104499
     58 C17         -0.7350     2.7670    -0.9580 c3         1 MOL       0.273238
     59 H35         -1.6830     2.6580    -0.6570 hx         1 MOL      -0.002219
     60 C18         -0.4270     4.2560    -1.0680 c3         1 MOL      -0.326353
     61 H36         -0.6250     4.6950    -0.2150 hc         1 MOL       0.074640
     62 H37          0.5210     4.3780    -1.2870 hc         1 MOL       0.074640
     63 H38         -0.9780     4.6520    -1.7760 hc         1 MOL       0.074640
     64 C19         -0.5780     2.1030    -2.3160 c3         1 MOL      -0.326353
     65 H39         -0.8450     1.1630    -2.2540 hc         1 MOL       0.074640
     66 H40         -1.1440     2.5620    -2.9710 hc         1 MOL       0.074640
     67 H41          0.3590     2.1580    -2.5990 hc         1 MOL       0.074640
     68 C20          0.1360     2.6610     1.4100 c3         1 MOL       0.273238
     69 H42          0.1380     3.6580     1.3230 hx         1 MOL      -0.002219
     70 C21         -1.1180     2.2620     2.1630 c3         1 MOL      -0.326353
     71 H43         -1.9070     2.4890     1.6280 hc         1 MOL       0.074640
     72 H44         -1.1040     1.2960     2.3300 hc         1 MOL       0.074640
     73 H45         -1.1530     2.7410     3.0170 hc         1 MOL       0.074640
     74 C22          1.3820     2.2580     2.1710 c3         1 MOL      -0.326353
     75 H46          2.1760     2.5200     1.6600 hc         1 MOL       0.074640
     76 H47          1.3920     2.7070     3.0420 hc         1 MOL       0.074640
     77 H48          1.3840     1.2880     2.3040 hc         1 MOL       0.074640
@<TRIPOS>BOND
     1     1     2 1   
     2     1     4 1   
     3     1    40 1   
     4     1    42 1   
     5     2     6 1   
     6     3     6 2   
     7     4     5 1   
     8     4    20 1   
     9     4    30 1   
    10     6     7 1   
    11     7     8 1   
    12     7    12 1   
    13     7    16 1   
    14     8     9 1   
    15     8    10 1   
    16     8    11 1   
    17    12    13 1   
    18    12    14 1   
    19    12    15 1   
    20    16    17 1   
    21    16    18 1   
    22    16    19 1   
    23    20    21 1   
    24    20    22 1   
    25    20    26 1   
    26    22    23 1   
    27    22    24 1   
    28    22    25 1   
    29    26    27 1   
    30    26    28 1   
    31    26    29 1   
    32    30    31 1   
    33    30    32 1   
    34    30    36 1   
    35    32    33 1   
    36    32    34 1   
    37    32    35 1   
    38    36    37 1   
    39    36    38 1   
    40    36    39 1   
    41    40    44 1   
    42    41    44 2   
    43    42    43 1   
    44    42    58 1   
    45    42    68 1   
    46    44    45 1   
    47    45    46 1   
    48    45    50 1   
    49    45    54 1   
    50    46    47 1   
    51    46    48 1   
    52    46    49 1   
    53    50    51 1   
    54    50    52 1   
    55    50    53 1   
    56    54    55 1   
    57    54    56 1   
    58    54    57 1   
    59    58    59 1   
    60    58    60 1   
    61    58    64 1   
    62    60    61 1   
    63    60    62 1   
    64    60    63 1   
    65    64    65 1   
    66    64    66 1   
    67    64    67 1   
    68    68    69 1   
    69    68    70 1   
    70    68    74 1   
    71    70    71 1   
    72    70    72 1   
    73    70    73 1   
    74    74    75 1   
    75    74    76 1   
    76    74    77 1   
@<TRIPOS>SUBSTRUCTURE
     1 MOL         1 TEMP              0 ****  ****    0 ROOT
