@<TRIPOS>MOLECULE
MOL
   21    21     1     0     0
SMALL
No Charge or Current Charge


@<TRIPOS>ATOM
      1 Pd1         -0.6020    -0.0180    -0.0790 Pd         1 MOL       0.185802
      2 Cl1         -2.5280    -1.2950     0.1400 2c         1 MOL      -0.510305
      3 Cl2         -1.7410     1.9850     0.0180 3c         1 MOL      -0.510305
      4 N1           1.1500     0.9610    -0.3040 4n         1 MOL      -0.219975
      5 H1           1.2380     1.2350    -1.1780 hn         1 MOL       0.199166
      6 H2           1.1550     1.7100     0.2310 hn         1 MOL       0.199166
      7 N2           0.5840    -1.6710    -0.1770 1n         1 MOL      -0.232500
      8 H3           0.5970    -2.0920     0.6400 hn         1 MOL       0.226562
      9 H4           0.2450    -2.2580    -0.7980 hn         1 MOL       0.226562
     10 C1           2.3030     0.0740     0.0630 c3         1 MOL       0.517901
     11 C2           3.5950     0.6430    -0.5170 c3         1 MOL      -0.404065
     12 H5           4.3410     0.0430    -0.3030 hc         1 MOL       0.104676
     13 H6           3.7660     1.5270    -0.1300 hc         1 MOL       0.104676
     14 H7           3.5090     0.7240    -1.4900 hc         1 MOL       0.104676
     15 C3           2.3800    -0.0250     1.5820 c3         1 MOL      -0.404065
     16 H8           1.5450    -0.4050     1.9260 hc         1 MOL       0.104676
     17 H9           2.5130     0.8690     1.9610 hc         1 MOL       0.104676
     18 H10          3.1290    -0.6020     1.8330 hc         1 MOL       0.104676
     19 C4           1.9670    -1.2780    -0.5600 c3         1 MOL       0.097464
     20 H11          2.0380    -1.2190    -1.5450 hx         1 MOL       0.000266
     21 H12          2.6090    -1.9630    -0.2430 hx         1 MOL       0.000266
@<TRIPOS>BOND
     1     4     5 1   
     2     4     6 1   
     3     4    10 1   
     4     7     8 1   
     5     7     9 1   
     6     7    19 1   
     7    10    11 1   
     8    10    15 1   
     9    10    19 1   
    10    11    12 1   
    11    11    13 1   
    12    11    14 1   
    13    15    16 1   
    14    15    17 1   
    15    15    18 1   
    16    19    20 1   
    17    19    21 1   
    18     1     2 1   
    19     1     3 1   
    20     1     4 1   
    21     1     7 1   
@<TRIPOS>SUBSTRUCTURE
     1 MOL         1 TEMP              0 ****  ****    0 ROOT
