@<TRIPOS>MOLECULE
MOL
   35    36     1     0     0
SMALL
No Charge or Current Charge


@<TRIPOS>ATOM
      1 C1           2.6760    -1.0840    -0.0710 c3         1 MOL       1.124451
      2 C2           3.6490    -2.2490    -0.2490 c3         1 MOL      -0.499331
      3 C3           3.2260     0.2570    -0.1230 c3         1 MOL      -0.677103
      4 C4           2.4990     1.4450    -0.1480 c3         1 MOL       1.124451
      5 C5           3.0320     2.2910     1.0230 c3         1 MOL      -0.499331
      6 O1           1.4010    -1.3690    -0.0420 3o         1 MOL      -1.040730
      7 O2           1.1980     1.5340    -0.0900 2o         1 MOL      -1.040730
      8 Pd1         -0.0070    -0.0070    -0.1400 Pd         1 MOL       0.886824
      9 O3          -1.4140     1.3550    -0.2390 1o         1 MOL      -1.040730
     10 O4          -1.2120    -1.5490    -0.1910 4o         1 MOL      -1.040730
     11 C6          -2.6900     1.0700    -0.2100 c3         1 MOL       1.124451
     12 C7          -2.5120    -1.4590    -0.1330 c3         1 MOL       1.124451
     13 C8          -3.6620     2.2350    -0.0320 c3         1 MOL      -0.499331
     14 C9          -3.2390    -0.2710    -0.1580 c3         1 MOL      -0.677103
     15 C10         -2.9280    -2.1810     1.1620 c3         1 MOL      -0.499331
     16 H1           2.3870    -0.6760     0.8750 h1         1 MOL      -0.147798
     17 H2           4.6390    -1.8690    -0.3920 hc         1 MOL       0.067623
     18 H3           3.6270    -2.8680     0.6240 hc         1 MOL       0.067623
     19 H4           3.3620    -2.8260    -1.1030 hc         1 MOL       0.067623
     20 H5           3.7750     0.3290     0.7930 hc         1 MOL      -0.022616
     21 H6           3.7430     0.2700    -1.0590 hc         1 MOL      -0.022616
     22 H7           2.7880     1.9470    -1.0480 h1         1 MOL      -0.147798
     23 H8           2.5090     3.2240     1.0570 hc         1 MOL       0.067623
     24 H9           4.0770     2.4740     0.8840 hc         1 MOL       0.067623
     25 H10          2.8810     1.7640     1.9420 hc         1 MOL       0.067623
     26 H11         -2.4010     0.6610    -1.1560 h1         1 MOL      -0.147798
     27 H12         -2.8830    -2.0470    -0.9470 h1         1 MOL      -0.147798
     28 H13         -3.1120     3.1500     0.0440 hc         1 MOL       0.067623
     29 H14         -4.2360     2.0880     0.8590 hc         1 MOL       0.067623
     30 H15         -4.3190     2.2830    -0.8750 hc         1 MOL       0.067623
     31 H16         -3.7560    -0.2840     0.7780 hc         1 MOL      -0.022616
     32 H17         -3.7880    -0.3430    -1.0740 hc         1 MOL      -0.022616
     33 H18         -2.0560    -2.5550     1.6570 hc         1 MOL       0.067623
     34 H19         -3.4370    -1.4950     1.8050 hc         1 MOL       0.067623
     35 H20         -3.5790    -2.9960     0.9230 hc         1 MOL       0.067623
@<TRIPOS>BOND
     1     1     2 1   
     2     1     3 1   
     3     1     6 1   
     4     1    16 1   
     5     2    17 1   
     6     2    18 1   
     7     2    19 1   
     8     3     4 1   
     9     3    20 1   
    10     3    21 1   
    11     4     5 1   
    12     4     7 1   
    13     4    22 1   
    14     5    23 1   
    15     5    24 1   
    16     5    25 1   
    17     6     8 1   
    18     7     8 1   
    19     8     9 1   
    20     8    10 1   
    21     9    11 1   
    22    10    12 1   
    23    11    13 1   
    24    11    14 1   
    25    11    26 1   
    26    12    14 1   
    27    12    15 1   
    28    12    27 1   
    29    13    28 1   
    30    13    29 1   
    31    13    30 1   
    32    14    31 1   
    33    14    32 1   
    34    15    33 1   
    35    15    34 1   
    36    15    35 1   
@<TRIPOS>SUBSTRUCTURE
     1 MOL         1 TEMP              0 ****  ****    0 ROOT
