@<TRIPOS>MOLECULE
MOL
   39    40     1     0     0
SMALL
No Charge or Current Charge


@<TRIPOS>ATOM
      1 Pd1          0.0000     0.0000     0.0000 Pd         1 MOL      -0.040960
      2 Cl1         -1.1770     1.5860     1.1920 2c         1 MOL      -0.559234
      3 N1           0.0080    -1.1710     1.6420 3n         1 MOL       0.188461
      4 C1           0.5680    -0.7570     2.7860 c2         1 MOL       0.230230
      5 H1           0.9590     0.1080     2.8180 h4         1 MOL       0.122973
      6 C2           0.5970    -1.5500     3.9260 c2         1 MOL      -0.413043
      7 C3          -0.0050    -2.7970     3.8690 cc         1 MOL       0.039385
      8 H2          -0.0040    -3.3650     4.6300 ha         1 MOL       0.137808
      9 C4          -0.6070    -3.2060     2.6940 cd         1 MOL      -0.262286
     10 H3          -1.0410    -4.0490     2.6450 ha         1 MOL       0.187566
     11 C5          -0.5710    -2.3790     1.5970 cc         1 MOL      -0.051486
     12 H4          -0.9680    -2.6730     0.7850 h4         1 MOL       0.231215
     13 C6           1.2650    -1.0060     5.1480 c          1 MOL       0.927551
     14 O1           1.3970     0.2150     5.3000 o          1 MOL      -0.708450
     15 N2           1.6960    -1.8930     6.0380 ns         1 MOL      -0.620744
     16 H5           1.5750    -2.7500     5.8800 hn         1 MOL       0.355124
     17 C7           2.3640    -1.4930     7.2700 c3         1 MOL      -0.096645
     18 H6           2.5790    -2.2900     7.7980 h1         1 MOL       0.104018
     19 H7           1.7730    -0.9070     7.7870 h1         1 MOL       0.104018
     20 H8           3.1910    -1.0130     7.0510 h1         1 MOL       0.104018
     21 Cl2          1.1770    -1.5860    -1.1920 4c         1 MOL      -0.559234
     22 N3          -0.0080     1.1710    -1.6420 1n         1 MOL       0.188461
     23 C8          -0.5680     0.7570    -2.7860 c2         1 MOL       0.230230
     24 H9          -0.9590    -0.1080    -2.8180 h4         1 MOL       0.122973
     25 C9          -0.5970     1.5500    -3.9260 c2         1 MOL      -0.413043
     26 C10          0.0050     2.7970    -3.8690 cc         1 MOL       0.039385
     27 H10          0.0040     3.3650    -4.6300 ha         1 MOL       0.137808
     28 C11          0.6070     3.2060    -2.6940 cd         1 MOL      -0.262286
     29 H11          1.0410     4.0490    -2.6450 ha         1 MOL       0.187566
     30 C12          0.5710     2.3790    -1.5970 cc         1 MOL      -0.051486
     31 H12          0.9680     2.6730    -0.7850 h4         1 MOL       0.231215
     32 C13         -1.2650     1.0060    -5.1480 c          1 MOL       0.927551
     33 O2          -1.3970    -0.2150    -5.3000 o          1 MOL      -0.708450
     34 N4          -1.6960     1.8930    -6.0380 ns         1 MOL      -0.620744
     35 H13         -1.5750     2.7500    -5.8800 hn         1 MOL       0.355124
     36 C14         -2.3640     1.4930    -7.2700 c3         1 MOL      -0.096645
     37 H14         -2.5790     2.2900    -7.7980 h1         1 MOL       0.104018
     38 H15         -1.7730     0.9070    -7.7870 h1         1 MOL       0.104018
     39 H16         -3.1910     1.0130    -7.0510 h1         1 MOL       0.104018
@<TRIPOS>BOND
     1     1     2 1   
     2     1     3 1   
     3     1    21 1   
     4     1    22 1   
     5     3     4 1   
     6     3    11 1   
     7     4     5 1   
     8     4     6 1   
     9     6     7 1   
    10     6    13 1   
    11     7     8 1   
    12     7     9 2   
    13     9    10 1   
    14     9    11 2   
    15    11    12 1   
    16    13    14 2   
    17    13    15 1   
    18    15    16 1   
    19    15    17 1   
    20    17    18 1   
    21    17    19 1   
    22    17    20 1   
    23    22    23 1   
    24    22    30 1   
    25    23    24 1   
    26    23    25 1   
    27    25    26 1   
    28    25    32 1   
    29    26    27 1   
    30    26    28 2   
    31    28    29 1   
    32    28    30 2   
    33    30    31 1   
    34    32    33 2   
    35    32    34 1   
    36    34    35 1   
    37    34    36 1   
    38    36    37 1   
    39    36    38 1   
    40    36    39 1   
@<TRIPOS>SUBSTRUCTURE
     1 MOL         1 TEMP              0 ****  ****    0 ROOT
