@<TRIPOS>MOLECULE
MOL
   78    81     1     0     0
SMALL
No Charge or Current Charge


@<TRIPOS>ATOM
      1 Pd1          0.2420     0.0700     0.1640 Pd         1 MOL      -0.022461
      2 P1          -1.6100     1.4620     0.0680 2p         1 MOL       0.172293
      3 P2           2.4100    -0.6270    -0.0040 4p         1 MOL       0.172293
      4 S1          -0.5180    -1.9500     1.1530 3s         1 MOL      -0.764944
      5 O1          -0.9630     2.9510    -0.2520 os         1 MOL      -0.626913
      6 O2           3.2520     0.7370    -0.4140 os         1 MOL      -0.626913
      7 C1           1.1180     1.7960    -0.3460 1d         1 MOL      -0.425205
      8 C2           0.4140     2.9870    -0.4320 ca         1 MOL       0.599503
      9 C3           2.4960     1.9020    -0.5170 ca         1 MOL       0.599503
     10 C4           3.1530     3.0840    -0.7500 ca         1 MOL      -0.435895
     11 H1           4.0780     3.1070    -0.8470 ha         1 MOL       0.223952
     12 C5          -1.8990    -2.6520     0.3330 ca         1 MOL       0.435752
     13 C6          -2.7820     1.3140    -1.3810 c3         1 MOL       0.580997
     14 C7          -2.4710     1.7980     1.6840 c3         1 MOL       0.580997
     15 C8           1.0350     4.2040    -0.6740 ca         1 MOL      -0.435895
     16 H2           0.5330     4.9840    -0.7270 ha         1 MOL       0.223952
     17 C9           2.3970     4.2430    -0.8370 ca         1 MOL      -0.146405
     18 H3           2.8180     5.0550    -1.0080 ha         1 MOL       0.205756
     19 C10          2.7590    -1.7320    -1.4840 c3         1 MOL       0.580997
     20 C11         -2.9240    -3.1730     1.0990 ca         1 MOL      -0.222962
     21 H4          -2.8850    -3.1170     2.0260 ha         1 MOL       0.181770
     22 C12         -3.8950     0.3100    -1.0790 c3         1 MOL      -0.035904
     23 H5          -4.4990     0.6850    -0.4350 hc         1 MOL      -0.023054
     24 H6          -3.5110    -0.4970    -0.7270 hc         1 MOL      -0.023054
     25 H7          -4.3730     0.1100    -1.8870 hc         1 MOL      -0.023054
     26 C13         -4.1050    -3.8570    -0.8620 ca         1 MOL      -0.150864
     27 H8          -4.8500    -4.2440    -1.2610 ha         1 MOL       0.159147
     28 C14         -1.9900    -2.7610    -1.0350 ca         1 MOL      -0.222962
     29 H9          -1.3000    -2.4310    -1.5630 ha         1 MOL       0.181770
     30 C15         -3.0760    -3.3470    -1.6360 ca         1 MOL      -0.255889
     31 H10         -3.1200    -3.4020    -2.5630 ha         1 MOL       0.187162
     32 C16         -4.0060    -3.7800     0.4930 ca         1 MOL      -0.255889
     33 H11         -4.6800    -4.1440     1.0200 ha         1 MOL       0.187162
     34 C17         -3.4630     2.9580     1.6090 c3         1 MOL      -0.035904
     35 H12         -4.1970     2.7150     1.0390 hc         1 MOL      -0.023054
     36 H13         -3.0240     3.7330     1.2500 hc         1 MOL      -0.023054
     37 H14         -3.7930     3.1550     2.4890 hc         1 MOL      -0.023054
     38 C18         -1.9090     0.8000    -2.5460 c3         1 MOL      -0.035904
     39 H15         -2.4450     0.7280    -3.3390 hc         1 MOL      -0.023054
     40 H16         -1.5500    -0.0610    -2.3220 hc         1 MOL      -0.023054
     41 H17         -1.1890     1.4160    -2.7020 hc         1 MOL      -0.023054
     42 C19         -3.4030     2.6560    -1.7930 c3         1 MOL      -0.035904
     43 H18         -3.9320     2.5340    -2.5850 hc         1 MOL      -0.023054
     44 H19         -2.7050     3.2910    -1.9690 hc         1 MOL      -0.023054
     45 H20         -3.9600     2.9830    -1.0820 hc         1 MOL      -0.023054
     46 C20         -3.1440     0.5480     2.2090 c3         1 MOL      -0.035904
     47 H21         -3.4400     0.6980     3.1100 hc         1 MOL      -0.023054
     48 H22         -2.5210    -0.1820     2.1950 hc         1 MOL      -0.023054
     49 H23         -3.8990     0.3330     1.6550 hc         1 MOL      -0.023054
     50 C21          2.0850    -3.0890    -1.3030 c3         1 MOL      -0.035904
     51 H24          2.1560    -3.5920    -2.1170 hc         1 MOL      -0.023054
     52 H25          1.1580    -2.9600    -1.0870 hc         1 MOL      -0.023054
     53 H26          2.5160    -3.5670    -0.5920 hc         1 MOL      -0.023054
     54 C22          2.1280    -1.0140    -2.6730 c3         1 MOL      -0.035904
     55 H27          2.2460    -1.5420    -3.4660 hc         1 MOL      -0.023054
     56 H28          2.5500    -0.1600    -2.7910 hc         1 MOL      -0.023054
     57 H29          1.1900    -0.8870    -2.5090 hc         1 MOL      -0.023054
     58 C23          4.2530    -1.9310    -1.7560 c3         1 MOL      -0.035904
     59 H30          4.6510    -2.4110    -1.0260 hc         1 MOL      -0.023054
     60 H31          4.6790    -1.0740    -1.8460 hc         1 MOL      -0.023054
     61 H32          4.3670    -2.4310    -2.5670 hc         1 MOL      -0.023054
     62 C24         -1.3280     2.1710     2.6450 c3         1 MOL      -0.035904
     63 H33         -1.6950     2.4060     3.5020 hc         1 MOL      -0.023054
     64 H34         -0.8400     2.9160     2.2900 hc         1 MOL      -0.023054
     65 H35         -0.7380     1.4210     2.7460 hc         1 MOL      -0.023054
     66 C25          3.2920    -1.1220     1.5340 c3         1 MOL       0.580997
     67 C26          3.0300    -2.5790     1.9050 c3         1 MOL      -0.035904
     68 H36          3.3570    -2.7480     2.7910 hc         1 MOL      -0.023054
     69 H37          3.4810    -3.1540     1.2820 hc         1 MOL      -0.023054
     70 H38          2.0860    -2.7530     1.8750 hc         1 MOL      -0.023054
     71 C27          2.6350    -0.2760     2.6300 c3         1 MOL      -0.035904
     72 H39          1.6900    -0.4460     2.6410 hc         1 MOL      -0.023054
     73 H40          2.7910     0.6540     2.4530 hc         1 MOL      -0.023054
     74 H41          3.0120    -0.5070     3.4820 hc         1 MOL      -0.023054
     75 C28          4.8080    -0.8440     1.4840 c3         1 MOL      -0.035904
     76 H42          5.2310    -1.2400     2.2500 hc         1 MOL      -0.023054
     77 H43          4.9610     0.1040     1.4890 hc         1 MOL      -0.023054
     78 H44          5.1760    -1.2240     0.6830 hc         1 MOL      -0.023054
@<TRIPOS>BOND
     1     2     5 1   
     2     2    13 1   
     3     2    14 1   
     4     3     6 1   
     5     3    19 1   
     6     3    66 1   
     7     4    12 1   
     8     5     8 1   
     9     6     9 1   
    10     7     8 ar  
    11     7     9 ar  
    12     8    15 ar  
    13     9    10 ar  
    14    10    11 1   
    15    10    17 ar  
    16    12    20 ar  
    17    12    28 ar  
    18    13    22 1   
    19    13    38 1   
    20    13    42 1   
    21    14    34 1   
    22    14    46 1   
    23    14    62 1   
    24    15    16 1   
    25    15    17 ar  
    26    17    18 1   
    27    19    50 1   
    28    19    54 1   
    29    19    58 1   
    30    20    21 1   
    31    20    32 ar  
    32    22    23 1   
    33    22    24 1   
    34    22    25 1   
    35    26    27 1   
    36    26    30 ar  
    37    26    32 ar  
    38    28    29 1   
    39    28    30 ar  
    40    30    31 1   
    41    32    33 1   
    42    34    35 1   
    43    34    36 1   
    44    34    37 1   
    45    38    39 1   
    46    38    40 1   
    47    38    41 1   
    48    42    43 1   
    49    42    44 1   
    50    42    45 1   
    51    46    47 1   
    52    46    48 1   
    53    46    49 1   
    54    50    51 1   
    55    50    52 1   
    56    50    53 1   
    57    54    55 1   
    58    54    56 1   
    59    54    57 1   
    60    58    59 1   
    61    58    60 1   
    62    58    61 1   
    63    62    63 1   
    64    62    64 1   
    65    62    65 1   
    66    66    67 1   
    67    66    71 1   
    68    66    75 1   
    69    67    68 1   
    70    67    69 1   
    71    67    70 1   
    72    71    72 1   
    73    71    73 1   
    74    71    74 1   
    75    75    76 1   
    76    75    77 1   
    77    75    78 1   
    78     2     1 1   
    79     3     1 1   
    80     4     1 1   
    81     7     1 1   
@<TRIPOS>SUBSTRUCTURE
     1 MOL         1 TEMP              0 ****  ****    0 ROOT
