@<TRIPOS>MOLECULE
MOL
   49    52     1     0     0
SMALL
No Charge or Current Charge


@<TRIPOS>ATOM
      1 Pd1         -0.9980    -1.1070    -0.4680 Pd         1 MOL       0.125595
      2 Cl1         -3.2080    -1.0970    -1.0880 2c         1 MOL      -0.494068
      3 Cl2         -0.7580    -3.2070    -1.3590 3c         1 MOL      -0.494068
      4 S1          -0.1580     2.9910     1.2790 ss         1 MOL      -0.255991
      5 S2           3.2140    -0.3750     1.0670 ss         1 MOL      -0.255991
      6 N1          -1.0560     0.7830     0.2890 1n         1 MOL       0.070058
      7 N2           0.9060    -1.1580     0.2200 4n         1 MOL       0.070058
      8 C1          -4.4160     2.5750     0.2450 c3         1 MOL      -0.216030
      9 H1          -4.8550     3.0340    -0.4730 hc         1 MOL       0.039720
     10 H2          -4.3530     3.1560     1.0070 hc         1 MOL       0.039720
     11 H3          -4.9200     1.7930     0.4820 hc         1 MOL       0.039720
     12 C2          -3.0340     2.1670    -0.1900 c3         1 MOL       0.465796
     13 H4          -2.5390     2.9590    -0.4500 hc         1 MOL      -0.088329
     14 H5          -3.1050     1.5930    -0.9700 hc         1 MOL      -0.088329
     15 C3          -2.2610     1.4310     0.9030 c3         1 MOL      -0.158418
     16 H6          -2.8320     0.7460     1.3090 h1         1 MOL       0.095774
     17 C4          -1.7220     2.3450     1.9750 c3         1 MOL       0.100012
     18 H7          -1.5590     1.8560     2.7970 h1         1 MOL       0.079882
     19 H8          -2.3440     3.0680     2.1560 h1         1 MOL       0.079882
     20 C5          -0.0100     1.5340     0.3430 c2         1 MOL       0.070713
     21 C6           1.2950     1.1950    -0.3620 c3         1 MOL       0.046281
     22 C7           2.3580     2.2940    -0.1640 c3         1 MOL       0.021503
     23 H9           1.9360     3.1540    -0.3150 hc         1 MOL       0.023323
     24 H10          2.6490     2.2720     0.7620 hc         1 MOL       0.023323
     25 C8           3.5920     2.2010    -1.0560 c3         1 MOL       0.115585
     26 H11          4.1170     3.0090    -0.9560 hc         1 MOL      -0.025587
     27 H12          4.1380     1.4540    -0.7650 hc         1 MOL      -0.025587
     28 C9           3.2510     2.0200    -2.4950 c3         1 MOL       0.045605
     29 H13          4.0620     1.8540    -3.0000 hc         1 MOL      -0.021412
     30 H14          2.8480     2.8340    -2.8350 hc         1 MOL      -0.021412
     31 C10          2.2850     0.8580    -2.6950 c3         1 MOL       0.115585
     32 H15          2.0530     0.7900    -3.6340 hc         1 MOL      -0.025587
     33 H16          2.7180     0.0310    -2.4300 hc         1 MOL      -0.025587
     34 C11          1.0360     1.0490    -1.8860 c3         1 MOL       0.021503
     35 H17          0.4500     0.2900    -2.0320 hc         1 MOL       0.023323
     36 H18          0.5760     1.8420    -2.2020 hc         1 MOL       0.023323
     37 C12          1.7160    -0.1640     0.2240 c2         1 MOL       0.070713
     38 C13          2.8700    -2.1350     1.2760 c3         1 MOL       0.100012
     39 H19          3.3930    -2.6570     0.6480 h1         1 MOL       0.079882
     40 H20          3.0970    -2.4180     2.1760 h1         1 MOL       0.079882
     41 C14          1.3760    -2.3330     1.0170 c3         1 MOL      -0.158418
     42 H21          1.2730    -3.1330     0.4590 h1         1 MOL       0.095774
     43 C15          0.5300    -2.5180     2.2400 c3         1 MOL       0.465796
     44 H22         -0.3880    -2.6610     1.9610 hc         1 MOL      -0.088329
     45 H23          0.8240    -3.3200     2.7010 hc         1 MOL      -0.088329
     46 C16          0.5600    -1.3880     3.1950 c3         1 MOL      -0.216030
     47 H24         -0.0020    -1.5900     3.9470 hc         1 MOL       0.039720
     48 H25          0.2430    -0.5930     2.7610 hc         1 MOL       0.039720
     49 H26          1.4610    -1.2490     3.4980 hc         1 MOL       0.039720
@<TRIPOS>BOND
     1     4    17 1   
     2     4    20 1   
     3     5    37 1   
     4     5    38 1   
     5     6    15 1   
     6     6    20 1   
     7     7    37 1   
     8     7    41 1   
     9     8     9 1   
    10     8    10 1   
    11     8    11 1   
    12     8    12 1   
    13    12    13 1   
    14    12    14 1   
    15    12    15 1   
    16    15    16 1   
    17    15    17 1   
    18    17    18 1   
    19    17    19 1   
    20    20    21 1   
    21    21    22 1   
    22    21    34 1   
    23    21    37 1   
    24    22    23 1   
    25    22    24 1   
    26    22    25 1   
    27    25    26 1   
    28    25    27 1   
    29    25    28 1   
    30    28    29 1   
    31    28    30 1   
    32    28    31 1   
    33    31    32 1   
    34    31    33 1   
    35    31    34 1   
    36    34    35 1   
    37    34    36 1   
    38    38    39 1   
    39    38    40 1   
    40    38    41 1   
    41    41    42 1   
    42    41    43 1   
    43    43    44 1   
    44    43    45 1   
    45    43    46 1   
    46    46    47 1   
    47    46    48 1   
    48    46    49 1   
    49     1     2 1   
    50     1     3 1   
    51     1     6 1   
    52     1     7 1   
@<TRIPOS>SUBSTRUCTURE
     1 MOL         1 TEMP              0 ****  ****    0 ROOT
