@<TRIPOS>MOLECULE
MOL
   77    85     1     0     0
SMALL
No Charge or Current Charge


@<TRIPOS>ATOM
      1 Pd1         -0.1890     0.5170     0.0330 Pd         1 MOL       0.698049
      2 P1          -0.8900    -1.6550     0.0340 4p         1 MOL      -0.346686
      3 O1           1.7720     0.0440     0.0790 3o         1 MOL      -0.677382
      4 N1          -1.8830     1.6510     0.0310 1n         1 MOL      -0.595331
      5 N2           0.6730     2.3030    -0.0650 2n         1 MOL       0.012163
      6 O2           8.0430     0.0900     0.1190 os         1 MOL      -0.661496
      7 N3           2.0600     2.3540    -0.0770 n2         1 MOL      -0.872320
      8 C1          -1.0680    -2.2910     1.7220 ca         1 MOL       0.118434
      9 C2          -0.1090     3.3250    -0.1850 c2         1 MOL       0.523102
     10 C3          -1.4940     2.9720    -0.1230 c2         1 MOL      -0.416055
     11 C4          -1.4250    -1.4000     2.7290 ca         1 MOL      -0.087050
     12 C5          -2.5320     3.8590    -0.1710 c2         1 MOL       0.042361
     13 C6          -3.7000     3.0580    -0.0210 ca         1 MOL      -0.067130
     14 C7          -2.4060    -2.0690    -0.8660 ca         1 MOL       0.118434
     15 C8          -0.8570    -3.6210     2.0470 ca         1 MOL      -0.087050
     16 C9           0.2340     4.7640    -0.3750 c3         1 MOL       0.039398
     17 C10         -2.2770     5.3200    -0.3500 c3         1 MOL       0.033051
     18 C11          2.5160     1.1310     0.0180 c2         1 MOL       0.773421
     19 C12          3.9770     0.9080     0.0560 ca         1 MOL      -0.053397
     20 C13         -3.2520     1.7000     0.1130 ca         1 MOL       0.539114
     21 C14         -5.0710     3.3510     0.0410 ca         1 MOL      -0.235705
     22 C15          5.8350    -0.5990     0.3410 ca         1 MOL      -0.465247
     23 C16         -5.9630     2.3270     0.2450 ca         1 MOL      -0.300774
     24 C17          4.4760    -0.3660     0.3300 ca         1 MOL      -0.125330
     25 C18          6.7210     0.4240     0.0720 ca         1 MOL       0.717873
     26 C19         -5.5220     1.0040     0.3710 ca         1 MOL      -0.104626
     27 C20         -3.2220    -3.1290    -0.5190 ca         1 MOL      -0.087050
     28 C21         -4.1870     0.6740     0.3170 ca         1 MOL      -0.457126
     29 C22         -0.8760     5.6690     0.1720 c3         1 MOL       0.039024
     30 C23         -4.5070    -2.8130    -2.5130 ca         1 MOL      -0.106905
     31 C24         -2.6790    -1.3660    -2.0330 ca         1 MOL      -0.087050
     32 C25          0.3400    -2.7330    -0.7790 ca         1 MOL       0.118434
     33 C26         -0.9960    -4.0550     3.3560 ca         1 MOL      -0.234679
     34 C27          4.8780     1.9220    -0.1900 ca         1 MOL      -0.125330
     35 C28          1.5980    -2.8870    -0.2090 ca         1 MOL      -0.087050
     36 C29         -1.3470    -3.1670     4.3390 ca         1 MOL      -0.106905
     37 C30         -4.2720    -3.4970    -1.3430 ca         1 MOL      -0.234679
     38 C31         -1.5650    -1.8520     4.0290 ca         1 MOL      -0.234679
     39 C32          6.2430     1.6950    -0.1940 ca         1 MOL      -0.465247
     40 C33          0.0830    -3.3360    -1.9990 ca         1 MOL      -0.087050
     41 C34         -3.7160    -1.7470    -2.8570 ca         1 MOL      -0.234679
     42 C35          2.5760    -3.6060    -0.8750 ca         1 MOL      -0.234679
     43 C36          2.3130    -4.1790    -2.0890 ca         1 MOL      -0.106905
     44 C37          1.0780    -4.0540    -2.6540 ca         1 MOL      -0.234679
     45 C38          8.9850     1.0930    -0.1690 c3         1 MOL       0.368680
     46 H1           8.8320     1.4310    -1.0540 h1         1 MOL      -0.004368
     47 H2           9.8690     0.7260    -0.1170 h1         1 MOL      -0.004368
     48 H3           8.8970     1.8070     0.4660 h1         1 MOL      -0.004368
     49 H4           1.0580     4.9480     0.0120 hc         1 MOL       0.016313
     50 H5           1.7530    -2.5020     0.6090 ha         1 MOL       0.133951
     51 H6          -6.1400     0.3230     0.5000 ha         1 MOL       0.153141
     52 H7           0.3200     4.8930    -1.2960 hc         1 MOL       0.016313
     53 H8          -2.2960     5.5510    -1.2500 hc         1 MOL       0.018838
     54 H9          -5.3340     4.2430    -0.0390 ha         1 MOL       0.189779
     55 H10         -1.5520    -0.4820     2.5130 ha         1 MOL       0.133951
     56 H11         -2.8990     5.8500     0.0910 hc         1 MOL       0.018838
     57 H12          3.8950    -1.0850     0.5150 ha         1 MOL       0.211510
     58 H13          4.5710     2.7620    -0.4040 ha         1 MOL       0.211510
     59 H14         -3.8520    -1.3100    -3.6430 ha         1 MOL       0.183538
     60 H15         -6.8380     2.4830     0.2770 ha         1 MOL       0.198779
     61 H16         -3.8770    -0.2190     0.4070 ha         1 MOL       0.249050
     62 H17         -3.0740    -3.5600     0.2520 ha         1 MOL       0.133951
     63 H18         -0.5920    -4.2210     1.3650 ha         1 MOL       0.133951
     64 H19         -0.6700     6.5880    -0.0370 hc         1 MOL      -0.002275
     65 H20          6.1690    -1.4420     0.5400 ha         1 MOL       0.210811
     66 H21         -2.1310    -0.6400    -2.2510 ha         1 MOL       0.133951
     67 H22         -0.7480    -3.2150    -2.4380 ha         1 MOL       0.133951
     68 H23         -0.8380     5.5980     1.0620 hc         1 MOL      -0.002275
     69 H24         -1.4110    -3.4680     5.1980 ha         1 MOL       0.161920
     70 H25         -0.7970    -4.9300     3.5510 ha         1 MOL       0.183538
     71 H26         -5.1650    -3.0710    -3.1020 ha         1 MOL       0.161920
     72 H27          6.8230     2.4330    -0.4080 ha         1 MOL       0.210811
     73 H28         -1.7910    -1.2300     4.6940 ha         1 MOL       0.183538
     74 H29          3.3480    -3.7010    -0.4670 ha         1 MOL       0.183538
     75 H30          0.9440    -4.4830    -3.4660 ha         1 MOL       0.183538
     76 H31         -4.7990    -4.1940    -1.1170 ha         1 MOL       0.183538
     77 H32          3.0270    -4.6270    -2.5010 ha         1 MOL       0.161920
@<TRIPOS>BOND
     1     2     8 1   
     2     2    14 1   
     3     2    32 1   
     4     3    18 1   
     5     4    10 1   
     6     4    20 1   
     7     5     7 1   
     8     5     9 1   
     9     6    25 1   
    10     6    45 1   
    11     7    18 1   
    12     8    11 ar  
    13     8    15 ar  
    14     9    10 1   
    15     9    16 1   
    16    10    12 1   
    17    11    38 ar  
    18    11    55 1   
    19    12    13 1   
    20    12    17 1   
    21    13    20 ar  
    22    13    21 ar  
    23    14    27 ar  
    24    14    31 ar  
    25    15    33 ar  
    26    15    63 1   
    27    16    29 1   
    28    16    49 1   
    29    16    52 1   
    30    17    29 1   
    31    17    53 1   
    32    17    56 1   
    33    18    19 1   
    34    19    24 ar  
    35    19    34 ar  
    36    20    28 ar  
    37    21    23 ar  
    38    21    54 1   
    39    22    24 ar  
    40    22    25 ar  
    41    22    65 1   
    42    23    26 ar  
    43    23    60 1   
    44    24    57 1   
    45    25    39 ar  
    46    26    28 ar  
    47    26    51 1   
    48    27    37 ar  
    49    27    62 1   
    50    28    61 1   
    51    29    64 1   
    52    29    68 1   
    53    30    37 ar  
    54    30    41 ar  
    55    30    71 1   
    56    31    41 ar  
    57    31    66 1   
    58    32    35 ar  
    59    32    40 ar  
    60    33    36 ar  
    61    33    70 1   
    62    34    39 ar  
    63    34    58 1   
    64    35    42 ar  
    65    35    50 1   
    66    36    38 ar  
    67    36    69 1   
    68    37    76 1   
    69    38    73 1   
    70    39    72 1   
    71    40    44 ar  
    72    40    67 1   
    73    41    59 1   
    74    42    43 ar  
    75    42    74 1   
    76    43    44 ar  
    77    43    77 1   
    78    44    75 1   
    79    45    46 1   
    80    45    47 1   
    81    45    48 1   
    82     1     2 1   
    83     1     3 1   
    84     1     4 1   
    85     1     5 1   
@<TRIPOS>SUBSTRUCTURE
     1 MOL         1 TEMP              0 ****  ****    0 ROOT
