@<TRIPOS>MOLECULE
MOL
  118   124     1     0     0
SMALL
No Charge or Current Charge


@<TRIPOS>ATOM
      1 Pd1         -1.7490     0.3230     0.1070 Pd         1 MOL       0.437847
      2 Cl1          0.2580     1.6260     0.3160 2c         1 MOL      -0.324435
      3 P1          -3.6360    -0.9070     0.0120 4p         1 MOL      -1.090908
      4 O1          -2.8570     2.0340     1.9650 o          1 MOL      -0.450411
      5 N1          -3.0770     2.9120    -0.1210 n          1 MOL       0.220823
      6 C1          -2.7380     1.9420     0.7600 3e         1 MOL       0.370186
      7 C2          -2.9770     2.7280    -1.5750 c3         1 MOL       0.262817
      8 H1          -2.7360     1.7710    -1.7390 h1         1 MOL       0.019085
      9 C3          -4.3210     2.9870    -2.2640 c3         1 MOL      -0.399699
     10 H2          -5.0010     2.3860    -1.8910 hc         1 MOL       0.112092
     11 H3          -4.2320     2.8210    -3.2250 hc         1 MOL       0.112092
     12 H4          -4.5900     3.9170    -2.1170 hc         1 MOL       0.112092
     13 C4          -1.8660     3.5860    -2.1730 c3         1 MOL      -0.399699
     14 H5          -1.0110     3.3480    -1.7580 hc         1 MOL       0.112092
     15 H6          -2.0600     4.5320    -2.0080 hc         1 MOL       0.112092
     16 H7          -1.8160     3.4270    -3.1390 hc         1 MOL       0.112092
     17 C5          -3.4810     4.2600     0.3780 c3         1 MOL       0.262817
     18 H8          -3.5800     4.8450    -0.4270 h1         1 MOL       0.019085
     19 C6          -4.8370     4.2380     1.0700 c3         1 MOL      -0.399699
     20 H9          -5.5230     3.9360     0.4380 hc         1 MOL       0.112092
     21 H10         -5.0580     5.1390     1.3860 hc         1 MOL       0.112092
     22 H11         -4.8050     3.6240     1.8330 hc         1 MOL       0.112092
     23 C7          -2.3900     4.8840     1.2420 c3         1 MOL      -0.399699
     24 H12         -1.5350     4.8510     0.7640 hc         1 MOL       0.112092
     25 H13         -2.3140     4.3870     2.0830 hc         1 MOL       0.112092
     26 H14         -2.6200     5.8180     1.4340 hc         1 MOL       0.112092
     27 C8          -3.4900    -2.2210    -1.2400 ca         1 MOL       0.438388
     28 C9          -3.8160    -3.5400    -0.9980 ca         1 MOL      -0.156246
     29 H15         -4.1200    -3.8000    -0.1380 ha         1 MOL       0.162897
     30 C10         -3.7000    -4.4900    -2.0060 ca         1 MOL      -0.227072
     31 H16         -3.9050    -5.3990    -1.8250 ha         1 MOL       0.195683
     32 C11         -3.2920    -4.1210    -3.2570 ca         1 MOL      -0.048964
     33 H17         -3.2370    -4.7700    -3.9480 ha         1 MOL       0.168979
     34 C12         -2.9600    -2.8060    -3.5160 ca         1 MOL      -0.227072
     35 H18         -2.6720    -2.5510    -4.3850 ha         1 MOL       0.195683
     36 C13         -3.0470    -1.8560    -2.5120 ca         1 MOL      -0.156246
     37 H19         -2.8030    -0.9550    -2.6900 ha         1 MOL       0.162897
     38 C14         -3.9480    -1.7620     1.5880 ca         1 MOL       0.438388
     39 C15         -2.8990    -1.9380     2.4860 ca         1 MOL      -0.156246
     40 H20         -2.0320    -1.6160     2.2710 ha         1 MOL       0.162897
     41 C16         -3.1150    -2.5820     3.6980 ca         1 MOL      -0.227072
     42 H21         -2.3980    -2.6890     4.3120 ha         1 MOL       0.195683
     43 C17         -4.3650    -3.0640     4.0110 ca         1 MOL      -0.048964
     44 H22         -4.5090    -3.5060     4.8400 ha         1 MOL       0.168979
     45 C18         -5.4090    -2.9050     3.1230 ca         1 MOL      -0.227072
     46 H23         -6.2710    -3.2420     3.3390 ha         1 MOL       0.195683
     47 C19         -5.2070    -2.2570     1.9190 ca         1 MOL      -0.156246
     48 H24         -5.9310    -2.1490     1.3150 ha         1 MOL       0.162897
     49 C20         -5.2520    -0.1410    -0.3450 ca         1 MOL       0.438388
     50 C21         -5.9880    -0.4470    -1.4780 ca         1 MOL      -0.156246
     51 H25         -5.6450    -1.0590    -2.1170 ha         1 MOL       0.162897
     52 C22         -7.2340     0.1460    -1.6810 ca         1 MOL      -0.227072
     53 H26         -7.7330    -0.0640    -2.4600 ha         1 MOL       0.195683
     54 C23         -7.7440     1.0240    -0.7690 ca         1 MOL      -0.048964
     55 H27         -8.5960     1.4160    -0.9110 ha         1 MOL       0.168979
     56 C24         -7.0180     1.3410     0.3640 ca         1 MOL      -0.227072
     57 H28         -7.3690     1.9570     0.9960 ha         1 MOL       0.195683
     58 C25         -5.7760     0.7620     0.5760 ca         1 MOL      -0.156246
     59 H29         -5.2800     0.9810     1.3550 ha         1 MOL       0.162897
     60 Pd2          1.7500    -0.3230    -0.1070 Pd         1 MOL       0.437847
     61 Cl2         -0.2580    -1.6250    -0.3160 1c         1 MOL      -0.324435
     62 P2           3.6360     0.9070    -0.0120 3p         1 MOL      -1.090908
     63 O2           2.8570    -2.0340    -1.9650 o          1 MOL      -0.450411
     64 N2           3.0770    -2.9120     0.1210 n          1 MOL       0.220823
     65 C26          2.7380    -1.9420    -0.7600 4e         1 MOL       0.370186
     66 C27          2.9770    -2.7280     1.5750 c3         1 MOL       0.262817
     67 H30          2.7360    -1.7710     1.7390 h1         1 MOL       0.019085
     68 C28          4.3210    -2.9870     2.2640 c3         1 MOL      -0.399699
     69 H31          5.0010    -2.3860     1.8910 hc         1 MOL       0.112092
     70 H32          4.2330    -2.8210     3.2250 hc         1 MOL       0.112092
     71 H33          4.5900    -3.9170     2.1170 hc         1 MOL       0.112092
     72 C29          1.8660    -3.5860     2.1730 c3         1 MOL      -0.399699
     73 H34          1.0110    -3.3480     1.7580 hc         1 MOL       0.112092
     74 H35          2.0600    -4.5320     2.0080 hc         1 MOL       0.112092
     75 H36          1.8160    -3.4270     3.1390 hc         1 MOL       0.112092
     76 C30          3.4810    -4.2600    -0.3780 c3         1 MOL       0.262817
     77 H37          3.5790    -4.8450     0.4270 h1         1 MOL       0.019085
     78 C31          4.8370    -4.2380    -1.0700 c3         1 MOL      -0.399699
     79 H38          5.5230    -3.9360    -0.4380 hc         1 MOL       0.112092
     80 H39          5.0580    -5.1380    -1.3870 hc         1 MOL       0.112092
     81 H40          4.8050    -3.6240    -1.8330 hc         1 MOL       0.112092
     82 C32          2.3900    -4.8840    -1.2420 c3         1 MOL      -0.399699
     83 H41          1.5350    -4.8510    -0.7640 hc         1 MOL       0.112092
     84 H42          2.3140    -4.3870    -2.0830 hc         1 MOL       0.112092
     85 H43          2.6190    -5.8180    -1.4340 hc         1 MOL       0.112092
     86 C33          3.4900     2.2210     1.2400 ca         1 MOL       0.438388
     87 C34          3.8160     3.5400     0.9990 ca         1 MOL      -0.156246
     88 H44          4.1200     3.8000     0.1380 ha         1 MOL       0.162897
     89 C35          3.7000     4.4900     2.0060 ca         1 MOL      -0.227072
     90 H45          3.9050     5.3990     1.8250 ha         1 MOL       0.195683
     91 C36          3.2920     4.1210     3.2570 ca         1 MOL      -0.048964
     92 H46          3.2370     4.7700     3.9480 ha         1 MOL       0.168979
     93 C37          2.9600     2.8060     3.5160 ca         1 MOL      -0.227072
     94 H47          2.6720     2.5510     4.3850 ha         1 MOL       0.195683
     95 C38          3.0470     1.8560     2.5120 ca         1 MOL      -0.156246
     96 H48          2.8030     0.9550     2.6900 ha         1 MOL       0.162897
     97 C39          3.9480     1.7620    -1.5880 ca         1 MOL       0.438388
     98 C40          2.8990     1.9380    -2.4860 ca         1 MOL      -0.156246
     99 H49          2.0320     1.6160    -2.2710 ha         1 MOL       0.162897
    100 C41          3.1150     2.5820    -3.6980 ca         1 MOL      -0.227072
    101 H50          2.3980     2.6890    -4.3120 ha         1 MOL       0.195683
    102 C42          4.3650     3.0650    -4.0110 ca         1 MOL      -0.048964
    103 H51          4.5090     3.5060    -4.8400 ha         1 MOL       0.168979
    104 C43          5.4090     2.9050    -3.1230 ca         1 MOL      -0.227072
    105 H52          6.2710     3.2420    -3.3390 ha         1 MOL       0.195683
    106 C44          5.2070     2.2570    -1.9190 ca         1 MOL      -0.156246
    107 H53          5.9310     2.1490    -1.3150 ha         1 MOL       0.162897
    108 C45          5.2520     0.1410     0.3440 ca         1 MOL       0.438388
    109 C46          5.9880     0.4470     1.4780 ca         1 MOL      -0.156246
    110 H54          5.6450     1.0590     2.1170 ha         1 MOL       0.162897
    111 C47          7.2340    -0.1460     1.6810 ca         1 MOL      -0.227072
    112 H55          7.7330     0.0640     2.4600 ha         1 MOL       0.195683
    113 C48          7.7440    -1.0240     0.7690 ca         1 MOL      -0.048964
    114 H56          8.5960    -1.4160     0.9120 ha         1 MOL       0.168979
    115 C49          7.0180    -1.3410    -0.3640 ca         1 MOL      -0.227072
    116 H57          7.3690    -1.9570    -0.9960 ha         1 MOL       0.195683
    117 C50          5.7760    -0.7610    -0.5750 ca         1 MOL      -0.156246
    118 H58          5.2800    -0.9810    -1.3550 ha         1 MOL       0.162897
@<TRIPOS>BOND
     1     3    27 1   
     2     3    38 1   
     3     3    49 1   
     4     4     6 1   
     5     5     6 1   
     6     5     7 1   
     7     5    17 1   
     8     7     8 1   
     9     7     9 1   
    10     7    13 1   
    11     9    10 1   
    12     9    11 1   
    13     9    12 1   
    14    13    14 1   
    15    13    15 1   
    16    13    16 1   
    17    17    18 1   
    18    17    19 1   
    19    17    23 1   
    20    19    20 1   
    21    19    21 1   
    22    19    22 1   
    23    23    24 1   
    24    23    25 1   
    25    23    26 1   
    26    27    28 ar  
    27    27    36 ar  
    28    28    29 1   
    29    28    30 ar  
    30    30    31 1   
    31    30    32 ar  
    32    32    33 1   
    33    32    34 ar  
    34    34    35 1   
    35    34    36 ar  
    36    36    37 1   
    37    38    39 ar  
    38    38    47 ar  
    39    39    40 1   
    40    39    41 ar  
    41    41    42 1   
    42    41    43 ar  
    43    43    44 1   
    44    43    45 ar  
    45    45    46 1   
    46    45    47 ar  
    47    47    48 1   
    48    49    50 ar  
    49    49    58 ar  
    50    50    51 1   
    51    50    52 ar  
    52    52    53 1   
    53    52    54 ar  
    54    54    55 1   
    55    54    56 ar  
    56    56    57 1   
    57    56    58 ar  
    58    58    59 1   
    59    62    86 1   
    60    62    97 1   
    61    62   108 1   
    62    63    65 1   
    63    64    65 1   
    64    64    66 1   
    65    64    76 1   
    66    66    67 1   
    67    66    68 1   
    68    66    72 1   
    69    68    69 1   
    70    68    70 1   
    71    68    71 1   
    72    72    73 1   
    73    72    74 1   
    74    72    75 1   
    75    76    77 1   
    76    76    78 1   
    77    76    82 1   
    78    78    79 1   
    79    78    80 1   
    80    78    81 1   
    81    82    83 1   
    82    82    84 1   
    83    82    85 1   
    84    86    87 ar  
    85    86    95 ar  
    86    87    88 1   
    87    87    89 ar  
    88    89    90 1   
    89    89    91 ar  
    90    91    92 1   
    91    91    93 ar  
    92    93    94 1   
    93    93    95 ar  
    94    95    96 1   
    95    97    98 ar  
    96    97   106 ar  
    97    98    99 1   
    98    98   100 ar  
    99   100   101 1   
   100   100   102 ar  
   101   102   103 1   
   102   102   104 ar  
   103   104   105 1   
   104   104   106 ar  
   105   106   107 1   
   106   108   109 ar  
   107   108   117 ar  
   108   109   110 1   
   109   109   111 ar  
   110   111   112 1   
   111   111   113 ar  
   112   113   114 1   
   113   113   115 ar  
   114   115   116 1   
   115   115   117 ar  
   116   117   118 1   
   117     1     2 1   
   118     1     3 1   
   119     1     6 1   
   120     1    61 1   
   121    60     2 1   
   122    60    61 1   
   123    60    62 1   
   124    60    65 1   
@<TRIPOS>SUBSTRUCTURE
     1 MOL         1 TEMP              0 ****  ****    0 ROOT
