@<TRIPOS>MOLECULE
MOL
   89    95     1     0     0
SMALL
No Charge or Current Charge


@<TRIPOS>ATOM
      1 Pd1         -0.6420     0.3810    -1.6630 Pd         1 MOL       0.316575
      2 Cl1          1.1380     0.5780    -3.1840 2c         1 MOL      -0.558161
      3 Cl2         -2.3000     0.9190    -3.2660 3c         1 MOL      -0.558161
      4 P1           0.8180    -0.0050    -0.0450 1p         1 MOL       0.535819
      5 N1           2.0610    -1.1170    -0.2100 n3         1 MOL      -0.226509
      6 C1           3.3160    -0.3510    -0.4300 c3         1 MOL      -0.135240
      7 H1           3.3250    -0.0310    -1.3770 h1         1 MOL       0.165014
      8 C2           3.1930     0.8670     0.4850 c3         1 MOL      -0.135240
      9 H2           3.3590     0.5810     1.4290 h1         1 MOL       0.165014
     10 N2           1.7760     1.2810     0.3480 n3         1 MOL      -0.226509
     11 C3           4.2430     1.8960     0.0870 c3         1 MOL       0.134016
     12 H3           4.1730     2.6970     0.6660 hc         1 MOL      -0.006081
     13 H4           4.1080     2.1760    -0.8530 hc         1 MOL      -0.006081
     14 C4           5.6230     1.2430     0.2530 c3         1 MOL       0.030489
     15 H5           6.3180     1.8700    -0.0680 hc         1 MOL      -0.016072
     16 H6           5.7870     1.0780     1.2150 hc         1 MOL      -0.016072
     17 C5           5.7570    -0.0780    -0.5070 c3         1 MOL       0.030489
     18 H7           6.6310    -0.4910    -0.2890 hc         1 MOL      -0.016072
     19 H8           5.7400     0.1020    -1.4790 hc         1 MOL      -0.016072
     20 C6           4.6320    -1.0620    -0.1550 c3         1 MOL       0.134016
     21 H9           4.7030    -1.8790    -0.7090 hc         1 MOL      -0.006081
     22 H10          4.6890    -1.3230     0.7990 hc         1 MOL      -0.006081
     23 C7           1.2670     2.4130     1.1250 c3         1 MOL      -0.076837
     24 H11          1.5930     2.3390     2.0560 h1         1 MOL       0.081066
     25 H12          0.2790     2.3700     1.1470 h1         1 MOL       0.081066
     26 C8           1.6860     3.7500     0.5650 ca         1 MOL       0.175727
     27 C9           2.1030     4.7560     1.4370 ca         1 MOL      -0.219331
     28 H13          2.0900     4.6040     2.3750 ha         1 MOL       0.148652
     29 C10          2.5410     5.9780     0.9470 ca         1 MOL      -0.179681
     30 H14          2.8380     6.6520     1.5450 ha         1 MOL       0.174949
     31 C11          2.5430     6.2140    -0.4280 ca         1 MOL      -0.178860
     32 H15          2.8490     7.0460    -0.7680 ha         1 MOL       0.163330
     33 C12          2.0960     5.2350    -1.2950 ca         1 MOL      -0.179681
     34 H16          2.0770     5.4060    -2.2300 ha         1 MOL       0.174949
     35 C13          1.6790     4.0030    -0.8110 ca         1 MOL      -0.219331
     36 H17          1.3900     3.3290    -1.4150 ha         1 MOL       0.148652
     37 C14          1.8100    -2.2580    -1.1000 c3         1 MOL      -0.076837
     38 H18          2.1250    -2.0270    -2.0110 h1         1 MOL       0.081066
     39 H19          0.8340    -2.4150    -1.1510 h1         1 MOL       0.081066
     40 C15          2.4880    -3.5360    -0.6560 ca         1 MOL       0.175727
     41 C16          2.7950    -4.4930    -1.6090 ca         1 MOL      -0.219331
     42 H20          2.6120    -4.3230    -2.5250 ha         1 MOL       0.148652
     43 C17          3.3760    -5.7080    -1.2290 ca         1 MOL      -0.179681
     44 H21          3.5880    -6.3580    -1.8910 ha         1 MOL       0.174949
     45 C18          3.6410    -5.9680     0.0960 ca         1 MOL      -0.178860
     46 H22          4.0370    -6.7950     0.3480 ha         1 MOL       0.163330
     47 C19          3.3350    -5.0310     1.0590 ca         1 MOL      -0.179681
     48 H23          3.5140    -5.2130     1.9730 ha         1 MOL       0.174949
     49 C20          2.7620    -3.8140     0.6900 ca         1 MOL      -0.219331
     50 H24          2.5550    -3.1700     1.3580 ha         1 MOL       0.148652
     51 C21         -0.1340    -0.5640     1.4210 c2         1 MOL      -0.313094
     52 C22          0.5770    -1.0180     2.6760 c          1 MOL       1.092813
     53 O1           0.4430    -2.1160     3.1360 o          1 MOL      -0.699216
     54 O2           1.3720    -0.0700     3.1530 os         1 MOL      -0.486493
     55 C23          2.0890    -0.4200     4.3850 c3         1 MOL      -0.289523
     56 H25          1.4430    -0.6720     5.0780 h1         1 MOL       0.183587
     57 H26          2.6120     0.3510     4.6880 h1         1 MOL       0.183587
     58 H27          2.6900    -1.1740     4.2090 h1         1 MOL       0.183587
     59 C24         -1.4740    -0.5510     1.3610 c2         1 MOL      -0.489407
     60 C25         -2.2860    -0.7690     2.6100 c          1 MOL       1.270065
     61 O3          -2.0890    -0.1810     3.6240 o          1 MOL      -0.732560
     62 O4          -3.2480    -1.6770     2.4240 os         1 MOL      -0.606286
     63 C26         -4.0660    -1.9440     3.6000 c3         1 MOL       0.017787
     64 H28         -3.4930    -2.2530     4.3340 h1         1 MOL       0.101834
     65 H29         -4.7270    -2.6350     3.3890 h1         1 MOL       0.101834
     66 H30         -4.5260    -1.1220     3.8710 h1         1 MOL       0.101834
     67 P2          -2.2630    -0.0390    -0.2190 4p         1 MOL       0.407634
     68 C27         -3.3220    -1.4060    -0.7360 ca         1 MOL       0.040152
     69 C28         -4.4930    -1.1630    -1.4650 ca         1 MOL      -0.125145
     70 H31         -4.7770    -0.2720    -1.6320 ha         1 MOL       0.158718
     71 C29         -5.2360    -2.2440    -1.9450 ca         1 MOL      -0.216484
     72 H32         -6.0330    -2.0910    -2.4390 ha         1 MOL       0.181316
     73 C30         -4.8170    -3.5320    -1.7010 ca         1 MOL      -0.096040
     74 H33         -5.3300    -4.2600    -2.0320 ha         1 MOL       0.158915
     75 C31         -3.6540    -3.7840    -0.9820 ca         1 MOL      -0.216484
     76 H34         -3.3780    -4.6780    -0.8170 ha         1 MOL       0.181316
     77 C32         -2.9030    -2.7120    -0.5080 ca         1 MOL      -0.125145
     78 H35         -2.0990    -2.8740    -0.0280 ha         1 MOL       0.158718
     79 C33         -3.3180     1.3410     0.2760 ca         1 MOL       0.040152
     80 C34         -2.8960     2.6210    -0.0070 ca         1 MOL      -0.125145
     81 H36         -2.0970     2.7630    -0.5020 ha         1 MOL       0.158718
     82 C35         -3.6500     3.7150     0.4410 ca         1 MOL      -0.216484
     83 H37         -3.3650     4.6020     0.2560 ha         1 MOL       0.181316
     84 C36         -4.8310     3.4860     1.1620 ca         1 MOL      -0.096040
     85 H38         -5.3490     4.2230     1.4600 ha         1 MOL       0.158915
     86 C37         -5.2480     2.1940     1.4450 ca         1 MOL      -0.216484
     87 H39         -6.0450     2.0490     1.9410 ha         1 MOL       0.181316
     88 C38         -4.5000     1.1150     1.0010 ca         1 MOL      -0.125145
     89 H40         -4.7840     0.2280     1.1870 ha         1 MOL       0.158718
@<TRIPOS>BOND
     1     1    67 1   
     2     4     5 1   
     3     4    10 1   
     4     4    51 1   
     5     5     6 1   
     6     5    37 1   
     7     6     7 1   
     8     6     8 1   
     9     6    20 1   
    10     8     9 1   
    11     8    10 1   
    12     8    11 1   
    13    10    23 1   
    14    11    12 1   
    15    11    13 1   
    16    11    14 1   
    17    14    15 1   
    18    14    16 1   
    19    14    17 1   
    20    17    18 1   
    21    17    19 1   
    22    17    20 1   
    23    20    21 1   
    24    20    22 1   
    25    23    24 1   
    26    23    25 1   
    27    23    26 1   
    28    26    27 ar  
    29    26    35 ar  
    30    27    28 1   
    31    27    29 ar  
    32    29    30 1   
    33    29    31 ar  
    34    31    32 1   
    35    31    33 ar  
    36    33    34 1   
    37    33    35 ar  
    38    35    36 1   
    39    37    38 1   
    40    37    39 1   
    41    37    40 1   
    42    40    41 ar  
    43    40    49 ar  
    44    41    42 1   
    45    41    43 ar  
    46    43    44 1   
    47    43    45 ar  
    48    45    46 1   
    49    45    47 ar  
    50    47    48 1   
    51    47    49 ar  
    52    49    50 1   
    53    51    52 1   
    54    51    59 1   
    55    52    53 1   
    56    52    54 1   
    57    54    55 1   
    58    55    56 1   
    59    55    57 1   
    60    55    58 1   
    61    59    60 1   
    62    59    67 1   
    63    60    61 1   
    64    60    62 1   
    65    62    63 1   
    66    63    64 1   
    67    63    65 1   
    68    63    66 1   
    69    67    68 1   
    70    67    79 1   
    71    68    69 ar  
    72    68    77 ar  
    73    69    70 1   
    74    69    71 ar  
    75    71    72 1   
    76    71    73 ar  
    77    73    74 1   
    78    73    75 ar  
    79    75    76 1   
    80    75    77 ar  
    81    77    78 1   
    82    79    80 ar  
    83    79    88 ar  
    84    80    81 1   
    85    80    82 ar  
    86    82    83 1   
    87    82    84 ar  
    88    84    85 1   
    89    84    86 ar  
    90    86    87 1   
    91    86    88 ar  
    92    88    89 1   
    93     1     3 1   
    94     1     2 1   
    95     1     4 1   
@<TRIPOS>SUBSTRUCTURE
     1 MOL         1 TEMP              0 ****  ****    0 ROOT
