@<TRIPOS>MOLECULE
MOL
  115   122     1     0     0
SMALL
No Charge or Current Charge


@<TRIPOS>ATOM
      1 Pd1          0.0000     0.0000    -0.0000 Pd         1 MOL       0.785565
      2 O1           2.0190     0.0280    -0.0180 2o         1 MOL      -0.853948
      3 O2           2.3370     2.1330     0.5920 o          1 MOL      -0.853948
      4 N1           0.0890    -1.8860     0.8880 3n         1 MOL      -0.168691
      5 H1          -0.7750    -2.3190     0.6350 hn         1 MOL       0.213765
      6 C1           2.7600     1.0240     0.2540 c          1 MOL       0.758690
      7 C2           4.2630     0.7880     0.1360 c3         1 MOL       0.536167
      8 C3           4.6020    -0.5030    -0.6240 c3         1 MOL      -0.116670
      9 H2           4.2200    -0.4630    -1.5370 hc         1 MOL      -0.018475
     10 H3           4.2020    -1.2780    -0.1560 hc         1 MOL      -0.018475
     11 C4           6.1290    -0.6850    -0.7120 c3         1 MOL       0.253265
     12 H4           6.3400    -1.5270    -1.2100 hc         1 MOL      -0.052678
     13 C5           6.7370     0.5010    -1.4350 c3         1 MOL      -0.213805
     14 H5           6.3620     0.5620    -2.3490 hc         1 MOL       0.025750
     15 H6           7.7160     0.3800    -1.5090 hc         1 MOL       0.025750
     16 C6           6.4320     1.7910    -0.6630 c3         1 MOL       0.253265
     17 H7           6.8420     2.5700    -1.1360 hc         1 MOL      -0.052678
     18 C7           4.9110     1.9770    -0.5860 c3         1 MOL      -0.116670
     19 H8           4.5390     2.0550    -1.5000 hc         1 MOL      -0.018475
     20 H9           4.7040     2.8140    -0.0970 hc         1 MOL      -0.018475
     21 C8           6.6900    -0.7740     0.7010 c3         1 MOL      -0.213805
     22 H10          7.6700    -0.9150     0.6610 hc         1 MOL       0.025750
     23 H11          6.2860    -1.5460     1.1710 hc         1 MOL       0.025750
     24 C9           6.3870     0.5090     1.4690 c3         1 MOL       0.253265
     25 H12          6.7700     0.4490     2.3910 hc         1 MOL      -0.052678
     26 C10          6.9860     1.7000     0.7420 c3         1 MOL      -0.213805
     27 H13          6.7750     2.5320     1.2370 hc         1 MOL       0.025750
     28 H14          7.9710     1.6060     0.7050 hc         1 MOL       0.025750
     29 C11          4.8560     0.6980     1.5500 c3         1 MOL      -0.116670
     30 H15          4.4520    -0.0650     2.0330 hc         1 MOL      -0.018475
     31 H16          4.6490     1.5260     2.0510 hc         1 MOL      -0.018475
     32 C12          1.1360    -2.7720     0.2900 c3         1 MOL       0.211514
     33 H17          2.0260    -2.3430     0.4370 hx         1 MOL       0.024825
     34 C13          1.1790    -4.1750     0.9010 c3         1 MOL      -0.127570
     35 H18          1.3690    -4.1100     1.8700 hc         1 MOL       0.048514
     36 H19          0.3010    -4.6160     0.7860 hc         1 MOL       0.048514
     37 C14          2.2670    -5.0030     0.2190 c3         1 MOL       0.012997
     38 H20          3.1460    -4.5730     0.3650 hc         1 MOL      -0.027842
     39 H21          2.2960    -5.9040     0.6260 hc         1 MOL      -0.027842
     40 C15          2.0160    -5.1340    -1.2660 c3         1 MOL       0.240469
     41 H22          1.1670    -5.6220    -1.4180 hc         1 MOL      -0.064594
     42 H23          2.7480    -5.6520    -1.6830 hc         1 MOL      -0.064594
     43 C16          1.9360    -3.7640    -1.9000 c3         1 MOL       0.012997
     44 H24          1.6990    -3.8600    -2.8570 hc         1 MOL      -0.027842
     45 H25          2.8250    -3.3290    -1.8510 hc         1 MOL      -0.027842
     46 C17          0.9030    -2.8700    -1.2130 c3         1 MOL      -0.127570
     47 H26          0.9410    -1.9630    -1.6080 hc         1 MOL       0.048514
     48 H27         -0.0040    -3.2340    -1.3790 hc         1 MOL       0.048514
     49 C18          0.0670    -1.8650     2.3900 c3         1 MOL       0.294827
     50 H28          0.0600    -2.8100     2.7170 hx         1 MOL      -0.033886
     51 C19         -1.2040    -1.1840     2.8740 c3         1 MOL      -0.327540
     52 H29         -1.9860    -1.6510     2.5100 hc         1 MOL       0.085696
     53 H30         -1.2120    -0.2510     2.5700 hc         1 MOL       0.085696
     54 H31         -1.2360    -1.2070     3.8530 hc         1 MOL       0.085696
     55 C20          1.3070    -1.1860     2.9290 c3         1 MOL      -0.327540
     56 H32          2.1040    -1.6330     2.5760 hc         1 MOL       0.085696
     57 H33          1.3090    -1.2400     3.9080 hc         1 MOL       0.085696
     58 H34          1.3100    -0.2450     2.6550 hc         1 MOL       0.085696
     59 O3          -2.0190    -0.0280     0.0180 4o         1 MOL      -0.853948
     60 O4          -2.3370    -2.1330    -0.5920 os         1 MOL      -0.853948
     61 N2          -0.0890     1.8860    -0.8880 1n         1 MOL      -0.168691
     62 H35          0.7750     2.3190    -0.6350 hn         1 MOL       0.213765
     63 C21         -2.7600    -1.0240    -0.2540 c          1 MOL       0.758690
     64 C22         -4.2630    -0.7880    -0.1360 c3         1 MOL       0.536167
     65 C23         -4.6020     0.5030     0.6240 c3         1 MOL      -0.116670
     66 H36         -4.2200     0.4630     1.5370 hc         1 MOL      -0.018475
     67 H37         -4.2020     1.2780     0.1560 hc         1 MOL      -0.018475
     68 C24         -6.1290     0.6850     0.7120 c3         1 MOL       0.253265
     69 H38         -6.3390     1.5270     1.2100 hc         1 MOL      -0.052678
     70 C25         -6.7370    -0.5010     1.4350 c3         1 MOL      -0.213805
     71 H39         -6.3620    -0.5620     2.3490 hc         1 MOL       0.025750
     72 H40         -7.7160    -0.3800     1.5090 hc         1 MOL       0.025750
     73 C26         -6.4320    -1.7910     0.6630 c3         1 MOL       0.253265
     74 H41         -6.8420    -2.5700     1.1360 hc         1 MOL      -0.052678
     75 C27         -4.9110    -1.9770     0.5860 c3         1 MOL      -0.116670
     76 H42         -4.5390    -2.0550     1.5000 hc         1 MOL      -0.018475
     77 H43         -4.7040    -2.8140     0.0970 hc         1 MOL      -0.018475
     78 C28         -6.6900     0.7740    -0.7010 c3         1 MOL      -0.213805
     79 H44         -7.6700     0.9140    -0.6610 hc         1 MOL       0.025750
     80 H45         -6.2860     1.5460    -1.1710 hc         1 MOL       0.025750
     81 C29         -6.3870    -0.5090    -1.4690 c3         1 MOL       0.253265
     82 H46         -6.7700    -0.4490    -2.3910 hc         1 MOL      -0.052678
     83 C30         -6.9860    -1.7000    -0.7420 c3         1 MOL      -0.213805
     84 H47         -6.7750    -2.5320    -1.2370 hc         1 MOL       0.025750
     85 H48         -7.9710    -1.6060    -0.7050 hc         1 MOL       0.025750
     86 C31         -4.8560    -0.6980    -1.5500 c3         1 MOL      -0.116670
     87 H49         -4.4520     0.0650    -2.0330 hc         1 MOL      -0.018475
     88 H50         -4.6490    -1.5260    -2.0510 hc         1 MOL      -0.018475
     89 C32         -1.1360     2.7720    -0.2900 c3         1 MOL       0.211514
     90 H51         -2.0260     2.3430    -0.4380 hx         1 MOL       0.024825
     91 C33         -1.1790     4.1750    -0.9010 c3         1 MOL      -0.127570
     92 H52         -1.3690     4.1100    -1.8700 hc         1 MOL       0.048514
     93 H53         -0.3010     4.6160    -0.7860 hc         1 MOL       0.048514
     94 C34         -2.2670     5.0030    -0.2190 c3         1 MOL       0.012997
     95 H54         -3.1460     4.5730    -0.3650 hc         1 MOL      -0.027842
     96 H55         -2.2960     5.9040    -0.6260 hc         1 MOL      -0.027842
     97 C35         -2.0160     5.1340     1.2660 c3         1 MOL       0.240469
     98 H56         -1.1680     5.6220     1.4180 hc         1 MOL      -0.064594
     99 H57         -2.7480     5.6520     1.6830 hc         1 MOL      -0.064594
    100 C36         -1.9360     3.7640     1.9000 c3         1 MOL       0.012997
    101 H58         -1.6990     3.8600     2.8570 hc         1 MOL      -0.027842
    102 H59         -2.8250     3.3290     1.8510 hc         1 MOL      -0.027842
    103 C37         -0.9030     2.8700     1.2130 c3         1 MOL      -0.127570
    104 H60         -0.9410     1.9630     1.6080 hc         1 MOL       0.048514
    105 H61          0.0040     3.2340     1.3790 hc         1 MOL       0.048514
    106 C38         -0.0670     1.8650    -2.3900 c3         1 MOL       0.294827
    107 H62         -0.0600     2.8100    -2.7170 hx         1 MOL      -0.033886
    108 C39          1.2040     1.1840    -2.8740 c3         1 MOL      -0.327540
    109 H63          1.9860     1.6510    -2.5100 hc         1 MOL       0.085696
    110 H64          1.2120     0.2510    -2.5700 hc         1 MOL       0.085696
    111 H65          1.2360     1.2070    -3.8530 hc         1 MOL       0.085696
    112 C40         -1.3070     1.1860    -2.9290 c3         1 MOL      -0.327540
    113 H66         -2.1040     1.6330    -2.5760 hc         1 MOL       0.085696
    114 H67         -1.3090     1.2400    -3.9080 hc         1 MOL       0.085696
    115 H68         -1.3100     0.2450    -2.6550 hc         1 MOL       0.085696
@<TRIPOS>BOND
     1     1     2 1   
     2     1     4 1   
     3     1    59 1   
     4     1    61 1   
     5     2     6 1   
     6     3     6 2   
     7     4     5 1   
     8     4    32 1   
     9     4    49 1   
    10     6     7 1   
    11     7     8 1   
    12     7    18 1   
    13     7    29 1   
    14     8     9 1   
    15     8    10 1   
    16     8    11 1   
    17    11    12 1   
    18    11    13 1   
    19    11    21 1   
    20    13    14 1   
    21    13    15 1   
    22    13    16 1   
    23    16    17 1   
    24    16    18 1   
    25    16    26 1   
    26    18    19 1   
    27    18    20 1   
    28    21    22 1   
    29    21    23 1   
    30    21    24 1   
    31    24    25 1   
    32    24    26 1   
    33    24    29 1   
    34    26    27 1   
    35    26    28 1   
    36    29    30 1   
    37    29    31 1   
    38    32    33 1   
    39    32    34 1   
    40    32    46 1   
    41    34    35 1   
    42    34    36 1   
    43    34    37 1   
    44    37    38 1   
    45    37    39 1   
    46    37    40 1   
    47    40    41 1   
    48    40    42 1   
    49    40    43 1   
    50    43    44 1   
    51    43    45 1   
    52    43    46 1   
    53    46    47 1   
    54    46    48 1   
    55    49    50 1   
    56    49    51 1   
    57    49    55 1   
    58    51    52 1   
    59    51    53 1   
    60    51    54 1   
    61    55    56 1   
    62    55    57 1   
    63    55    58 1   
    64    59    63 1   
    65    60    63 2   
    66    61    62 1   
    67    61    89 1   
    68    61   106 1   
    69    63    64 1   
    70    64    65 1   
    71    64    75 1   
    72    64    86 1   
    73    65    66 1   
    74    65    67 1   
    75    65    68 1   
    76    68    69 1   
    77    68    70 1   
    78    68    78 1   
    79    70    71 1   
    80    70    72 1   
    81    70    73 1   
    82    73    74 1   
    83    73    75 1   
    84    73    83 1   
    85    75    76 1   
    86    75    77 1   
    87    78    79 1   
    88    78    80 1   
    89    78    81 1   
    90    81    82 1   
    91    81    83 1   
    92    81    86 1   
    93    83    84 1   
    94    83    85 1   
    95    86    87 1   
    96    86    88 1   
    97    89    90 1   
    98    89    91 1   
    99    89   103 1   
   100    91    92 1   
   101    91    93 1   
   102    91    94 1   
   103    94    95 1   
   104    94    96 1   
   105    94    97 1   
   106    97    98 1   
   107    97    99 1   
   108    97   100 1   
   109   100   101 1   
   110   100   102 1   
   111   100   103 1   
   112   103   104 1   
   113   103   105 1   
   114   106   107 1   
   115   106   108 1   
   116   106   112 1   
   117   108   109 1   
   118   108   110 1   
   119   108   111 1   
   120   112   113 1   
   121   112   114 1   
   122   112   115 1   
@<TRIPOS>SUBSTRUCTURE
     1 MOL         1 TEMP              0 ****  ****    0 ROOT
