@<TRIPOS>MOLECULE
MOL
   41    46     1     0     0
SMALL
No Charge or Current Charge


@<TRIPOS>ATOM
      1 C1          -2.7830    -0.7290     0.1770 c2         1 MOL       0.123914
      2 C2          -3.9310    -1.4190     0.4970 c2         1 MOL      -0.165174
      3 C3          -3.8290    -2.7440     0.8460 c2         1 MOL       0.020263
      4 C4          -2.5870    -3.3040     1.0040 c2         1 MOL      -0.174318
      5 C5          -1.4550    -2.5490     0.7200 c2         1 MOL       0.073115
      6 C6          -2.7690     0.7000    -0.2050 c2         1 MOL       0.123914
      7 C7          -3.9360     1.4180    -0.3920 c2         1 MOL      -0.165174
      8 C8          -3.8440     2.7500    -0.7660 c2         1 MOL       0.020263
      9 C9          -2.6050     3.2930    -1.0120 c2         1 MOL      -0.174318
     10 C10         -1.4500     2.5120    -0.8000 c2         1 MOL       0.073115
     11 C11          2.7900    -0.7050    -0.1790 c2         1 MOL       0.123914
     12 C12          3.9420    -1.3880    -0.4810 c2         1 MOL      -0.165174
     13 C13          3.8450    -2.7410    -0.8450 c2         1 MOL       0.020263
     14 C14          2.6100    -3.2950    -0.9740 c2         1 MOL      -0.174318
     15 C15          1.5060    -2.5630    -0.7070 c2         1 MOL       0.073115
     16 C16          2.7850     0.7200     0.1990 c2         1 MOL       0.123914
     17 C17          3.9030     1.4280     0.5250 c2         1 MOL      -0.165174
     18 C18          3.8060     2.7560     0.9050 c2         1 MOL       0.020263
     19 C19          2.5250     3.3100     1.0110 c2         1 MOL      -0.174318
     20 C20          1.4590     2.5570     0.6690 c2         1 MOL       0.073115
     21 H1          -4.8450    -0.8660     0.3580 ha         1 MOL       0.173377
     22 H2          -4.5650    -3.3580     0.8850 ha         1 MOL       0.183383
     23 H3          -2.6490    -4.3340     1.1720 ha         1 MOL       0.182200
     24 H4          -0.4780    -2.8220     0.9920 h4         1 MOL       0.104224
     25 H5          -4.8720     1.0610    -0.1590 ha         1 MOL       0.173377
     26 H6          -4.7570     3.3000    -0.9260 ha         1 MOL       0.183383
     27 H7          -2.5210     4.2860    -1.3410 ha         1 MOL       0.182200
     28 H8          -0.2870     2.9710    -0.9870 h4         1 MOL       0.104224
     29 H9           4.7480    -0.8300    -0.4300 ha         1 MOL       0.173377
     30 H10          4.5560    -3.3430    -0.9790 ha         1 MOL       0.183383
     31 H11          2.4190    -4.1540    -1.2460 ha         1 MOL       0.182200
     32 H12          0.3940    -2.8640    -0.7300 h4         1 MOL       0.104224
     33 H13          4.6900     1.0210     0.5330 ha         1 MOL       0.173377
     34 H14          4.5210     3.3410     1.1390 ha         1 MOL       0.183383
     35 H15          2.3640     4.2780     1.1690 ha         1 MOL       0.182200
     36 H16          0.4740     3.0130     0.8760 h4         1 MOL       0.104224
     37 N1          -1.5330    -1.2940     0.2780 1n         1 MOL      -0.040689
     38 N2          -1.5560     1.2450    -0.3160 2n         1 MOL      -0.040689
     39 N3           1.5780    -1.2780    -0.2620 4n         1 MOL      -0.040689
     40 N4           1.5650     1.2960     0.2600 3n         1 MOL      -0.040689
     41 Pd1          0.0120    -0.0110    -0.0260 Pd         1 MOL       0.078824
@<TRIPOS>BOND
     1     1     2 1   
     2     1     6 1   
     3     1    37 1   
     4     2     3 1   
     5     2    21 1   
     6     3     4 1   
     7     3    22 1   
     8     4     5 1   
     9     4    23 1   
    10     5    24 1   
    11     5    37 1   
    12     6     7 1   
    13     6    38 1   
    14     7     8 1   
    15     7    25 1   
    16     8     9 1   
    17     8    26 1   
    18     9    10 1   
    19     9    27 1   
    20    10    28 1   
    21    10    38 1   
    22    11    12 1   
    23    11    16 1   
    24    11    39 1   
    25    12    13 1   
    26    12    29 1   
    27    13    14 1   
    28    13    30 1   
    29    14    15 1   
    30    14    31 1   
    31    15    32 1   
    32    15    39 1   
    33    16    17 1   
    34    16    40 1   
    35    17    18 1   
    36    17    33 1   
    37    18    19 1   
    38    18    34 1   
    39    19    20 1   
    40    19    35 1   
    41    20    36 1   
    42    20    40 1   
    43    37    41 1   
    44    38    41 1   
    45    39    41 1   
    46    40    41 1   
@<TRIPOS>SUBSTRUCTURE
     1 MOL         1 TEMP              0 ****  ****    0 ROOT
