@<TRIPOS>MOLECULE
MOL
  105   113     1     0     0
SMALL
No Charge or Current Charge


@<TRIPOS>ATOM
      1 Pd1         -0.0350    -1.7830    -1.2010 Pd         1 MOL       0.197475
      2 Cl1          1.7010    -3.0480    -2.2180 1c         1 MOL      -0.537003
      3 Cl2         -1.5150    -2.7820    -2.7170 2c         1 MOL      -0.537003
      4 P1          -1.6780    -0.4730    -0.3740 3p         1 MOL       0.002794
      5 P2           1.6290    -0.7710     0.0420 4p         1 MOL       0.002794
      6 C1          -0.1600     1.9300    -0.2950 cp         1 MOL      -0.080169
      7 C2          -1.0840     1.1460    -0.9500 ca         1 MOL      -0.018308
      8 C3          -1.5140     1.5210    -2.2880 ca         1 MOL      -0.245143
      9 H1          -2.1160     0.9720    -2.7570 ha         1 MOL       0.228291
     10 C4          -1.0350     2.6940    -2.8840 ca         1 MOL      -0.275938
     11 H2          -1.3060     2.9370    -3.7500 ha         1 MOL       0.198038
     12 C5           0.3630     4.7390    -2.7460 ca         1 MOL      -0.263534
     13 H3           0.1660     4.8960    -3.6510 ha         1 MOL       0.173943
     14 C6           1.0700     5.6480    -2.1330 ca         1 MOL      -0.141941
     15 H4           1.1650     6.5320    -2.4390 ha         1 MOL       0.170151
     16 C7           1.7130     5.1140    -0.8900 ca         1 MOL      -0.157240
     17 H5           2.4270     5.5860    -0.5040 ha         1 MOL       0.174020
     18 C8           1.3010     4.0090    -0.3290 ca         1 MOL      -0.263087
     19 H6           1.6460     3.7820     0.5160 ha         1 MOL       0.140064
     20 C9           0.3660     3.1370    -0.9230 ca         1 MOL       0.252294
     21 C10         -0.1520     3.4990    -2.1690 ca         1 MOL       0.117318
     22 C11          0.3860     1.5720     1.0800 cp         1 MOL      -0.080169
     23 C12          1.2160     0.5230     1.3200 ca         1 MOL      -0.018308
     24 C13          1.7610     0.3970     2.5930 ca         1 MOL      -0.245143
     25 H7           2.4070    -0.2680     2.7490 ha         1 MOL       0.228291
     26 C14          1.3920     1.2000     3.6080 ca         1 MOL      -0.275938
     27 H8           1.7740     1.0670     4.4570 ha         1 MOL       0.198038
     28 C15          0.0300     3.1370     4.4510 ca         1 MOL      -0.263534
     29 H9           0.5070     3.1400     5.2620 ha         1 MOL       0.173943
     30 C16         -0.9760     3.9620     4.3230 ca         1 MOL      -0.141941
     31 H10         -1.2810     4.4570     5.0640 ha         1 MOL       0.170151
     32 C17         -1.5900     4.0960     3.0950 ca         1 MOL      -0.157240
     33 H11         -2.3410     4.6480     2.9840 ha         1 MOL       0.174020
     34 C18         -1.0710     3.4120     2.0620 ca         1 MOL      -0.263087
     35 H12         -1.4070     3.6170     1.2070 ha         1 MOL       0.140064
     36 C19         -0.0810     2.4280     2.1310 ca         1 MOL       0.252294
     37 C20          0.4440     2.2360     3.4360 ca         1 MOL       0.117318
     38 C21         -3.3490    -0.6750    -1.1710 c3         1 MOL       0.138075
     39 H13         -3.1690    -0.8030    -2.1360 hc         1 MOL       0.039312
     40 C22         -4.0910    -1.8970    -0.7360 c3         1 MOL       0.133240
     41 H14         -4.4170    -1.7790     0.1800 hc         1 MOL      -0.056857
     42 H15         -3.4920    -2.6710    -0.7530 hc         1 MOL      -0.056857
     43 C23         -5.2720    -2.1350    -1.6800 c3         1 MOL       0.095092
     44 H16         -5.7730    -2.9270    -1.3900 hc         1 MOL      -0.027992
     45 H17         -4.9440    -2.2950    -2.5890 hc         1 MOL      -0.027992
     46 C24         -6.2280    -0.8630    -1.6700 c3         1 MOL      -0.147983
     47 H18         -6.9430    -0.9870    -2.3300 hc         1 MOL       0.033343
     48 H19         -6.6440    -0.7730    -0.7880 hc         1 MOL       0.033343
     49 C25         -5.5000     0.3450    -1.9810 c3         1 MOL       0.095092
     50 H20         -6.1080     1.1090    -1.8980 hc         1 MOL      -0.027992
     51 H21         -5.2010     0.3020    -2.9110 hc         1 MOL      -0.027992
     52 C26         -4.2650     0.5940    -1.0750 c3         1 MOL       0.133240
     53 H22         -4.5490     0.7380    -0.1480 hc         1 MOL      -0.056857
     54 H23         -3.7780     1.3880    -1.3780 hc         1 MOL      -0.056857
     55 C27         -1.8960    -0.5880     1.4420 c3         1 MOL       0.138075
     56 H24         -1.0410    -0.2690     1.8260 hc         1 MOL       0.039312
     57 C28         -2.0250    -2.0320     1.8990 c3         1 MOL       0.133240
     58 H25         -1.3240    -2.5740     1.4790 hc         1 MOL      -0.056857
     59 H26         -2.8940    -2.3880     1.6230 hc         1 MOL      -0.056857
     60 C29         -1.8910    -2.1180     3.4650 c3         1 MOL       0.095092
     61 H27         -2.0070    -3.0470     3.7560 hc         1 MOL      -0.027992
     62 H28         -0.9970    -1.8220     3.7360 hc         1 MOL      -0.027992
     63 C30         -2.9630    -1.2250     4.1300 c3         1 MOL      -0.147983
     64 H29         -3.8540    -1.5790     3.9350 hc         1 MOL       0.033343
     65 H30         -2.8370    -1.2290     5.1030 hc         1 MOL       0.033343
     66 C31         -2.8530     0.1550     3.6220 c3         1 MOL       0.095092
     67 H31         -1.9890     0.5230     3.9020 hc         1 MOL      -0.027992
     68 H32         -3.5550     0.6990     4.0370 hc         1 MOL      -0.027992
     69 C32         -2.9720     0.2910     2.0740 c3         1 MOL       0.133240
     70 H33         -3.8610     0.0030     1.7770 hc         1 MOL      -0.056857
     71 H34         -2.8450     1.2260     1.8070 hc         1 MOL      -0.056857
     72 C33          2.8540    -0.0110    -1.0740 c3         1 MOL       0.138075
     73 H35          3.4810    -0.7480    -1.2800 hc         1 MOL       0.039312
     74 C34          2.3090     0.4370    -2.4780 c3         1 MOL       0.133240
     75 H36          1.7910    -0.2890    -2.8840 hc         1 MOL      -0.056857
     76 H37          1.7230     1.2170    -2.3790 hc         1 MOL      -0.056857
     77 C35          3.5040     0.7890    -3.3670 c3         1 MOL       0.095092
     78 H38          3.1860     1.1110    -4.2380 hc         1 MOL      -0.027992
     79 H39          4.0520    -0.0090    -3.5190 hc         1 MOL      -0.027992
     80 C36          4.3730     1.9120    -2.6630 c3         1 MOL      -0.147983
     81 H40          5.1500     2.1180    -3.2240 hc         1 MOL       0.033343
     82 H41          3.8380     2.7290    -2.5810 hc         1 MOL       0.033343
     83 C37          4.8030     1.5270    -1.4220 c3         1 MOL       0.095092
     84 H42          5.2930     2.2730    -1.0210 hc         1 MOL      -0.027992
     85 H43          5.4360     0.7860    -1.5330 hc         1 MOL      -0.027992
     86 C38          3.7620     1.1040    -0.4840 c3         1 MOL       0.133240
     87 H44          3.2090     1.8780    -0.2480 hc         1 MOL      -0.056857
     88 H45          4.1830     0.7730     0.3360 hc         1 MOL      -0.056857
     89 C39          2.5910    -2.0770     0.9260 c3         1 MOL       0.138075
     90 H46          2.6830    -2.7410     0.1970 hc         1 MOL       0.039312
     91 C40          4.0330    -1.8800     1.2720 c3         1 MOL       0.133240
     92 H47          4.1020    -1.2720     2.0370 hc         1 MOL      -0.056857
     93 H48          4.4970    -1.4680     0.5160 hc         1 MOL      -0.056857
     94 C41          4.7040    -3.1980     1.6160 c3         1 MOL       0.095092
     95 H49          5.6030    -3.0110     1.9620 hc         1 MOL      -0.027992
     96 H50          4.8070    -3.7220     0.7940 hc         1 MOL      -0.027992
     97 C42          3.9340    -4.0650     2.6680 c3         1 MOL      -0.147983
     98 H51          4.3820    -4.9320     2.7610 hc         1 MOL       0.033343
     99 H52          3.9620    -3.6170     3.5390 hc         1 MOL       0.033343
    100 C43          2.5150    -4.2870     2.2770 c3         1 MOL       0.095092
    101 H53          2.0420    -4.7350     3.0080 hc         1 MOL      -0.027992
    102 H54          2.4830    -4.8740     1.4920 hc         1 MOL      -0.027992
    103 C44          1.7650    -2.9040     1.9310 c3         1 MOL       0.133240
    104 H55          0.8830    -3.0940     1.5480 hc         1 MOL      -0.056857
    105 H56          1.6350    -2.3870     2.7520 hc         1 MOL      -0.056857
@<TRIPOS>BOND
     1     4     7 1   
     2     4    38 1   
     3     4    55 1   
     4     5    23 1   
     5     5    72 1   
     6     5    89 1   
     7     6     7 ar  
     8     6    20 ar  
     9     6    22 1   
    10     7     8 ar  
    11     8     9 1   
    12     8    10 ar  
    13    10    11 1   
    14    10    21 ar  
    15    12    13 1   
    16    12    14 ar  
    17    12    21 ar  
    18    14    15 1   
    19    14    16 ar  
    20    16    17 1   
    21    16    18 ar  
    22    18    19 1   
    23    18    20 ar  
    24    20    21 ar  
    25    22    23 ar  
    26    22    36 ar  
    27    23    24 ar  
    28    24    25 1   
    29    24    26 ar  
    30    26    27 1   
    31    26    37 ar  
    32    28    29 1   
    33    28    30 ar  
    34    28    37 ar  
    35    30    31 1   
    36    30    32 ar  
    37    32    33 1   
    38    32    34 ar  
    39    34    35 1   
    40    34    36 ar  
    41    36    37 ar  
    42    38    39 1   
    43    38    40 1   
    44    38    52 1   
    45    40    41 1   
    46    40    42 1   
    47    40    43 1   
    48    43    44 1   
    49    43    45 1   
    50    43    46 1   
    51    46    47 1   
    52    46    48 1   
    53    46    49 1   
    54    49    50 1   
    55    49    51 1   
    56    49    52 1   
    57    52    53 1   
    58    52    54 1   
    59    55    56 1   
    60    55    57 1   
    61    55    69 1   
    62    57    58 1   
    63    57    59 1   
    64    57    60 1   
    65    60    61 1   
    66    60    62 1   
    67    60    63 1   
    68    63    64 1   
    69    63    65 1   
    70    63    66 1   
    71    66    67 1   
    72    66    68 1   
    73    66    69 1   
    74    69    70 1   
    75    69    71 1   
    76    72    73 1   
    77    72    74 1   
    78    72    86 1   
    79    74    75 1   
    80    74    76 1   
    81    74    77 1   
    82    77    78 1   
    83    77    79 1   
    84    77    80 1   
    85    80    81 1   
    86    80    82 1   
    87    80    83 1   
    88    83    84 1   
    89    83    85 1   
    90    83    86 1   
    91    86    87 1   
    92    86    88 1   
    93    89    90 1   
    94    89    91 1   
    95    89   103 1   
    96    91    92 1   
    97    91    93 1   
    98    91    94 1   
    99    94    95 1   
   100    94    96 1   
   101    94    97 1   
   102    97    98 1   
   103    97    99 1   
   104    97   100 1   
   105   100   101 1   
   106   100   102 1   
   107   100   103 1   
   108   103   104 1   
   109   103   105 1   
   110     1     2 1
   111     1     3 1
   112     1     4 1 
   113     1     5 1  
@<TRIPOS>SUBSTRUCTURE
     1 MOL         1 TEMP              0 ****  ****    0 ROOT
